 Airbag                                                                  
                    ls-dyna smp d R13 R13.1.1_27_8731a0 date 07/28/2023


 dt of cycle       1 is controlled by shell          24917 of part         4

 time...........................   0.00000E+00
 time step......................   2.55925E-06
 kinetic energy.................   0.00000E+00
 internal energy................   2.04235E+03
 spring and damper energy.......   1.00000E-20
 hourglass energy ..............   0.00000E+00
 system damping energy..........   0.00000E+00
 sliding interface energy.......   0.00000E+00
 external work..................   0.00000E+00
 eroded kinetic energy..........   0.00000E+00
 eroded internal energy.........   0.00000E+00
 eroded hourglass energy........   0.00000E+00
 total energy...................   2.04235E+03
 total energy / initial energy..   1.00000E+00
 energy ratio w/o eroded energy.   1.00000E+00
 global x velocity..............   0.00000E+00
 global y velocity..............   0.00000E+00
 global z velocity..............   0.00000E+00
 time per zone cycle.(nanosec)..             0


 dt of cycle       4 is controlled by shell          24917 of part         4

 time...........................   7.67774E-06
 time step......................   2.55925E-06
 kinetic energy.................   1.41357E-01
 internal energy................   2.04433E+03
 spring and damper energy.......   1.00000E-20
 hourglass energy ..............   1.34441E-07
 system damping energy..........   0.00000E+00
 sliding interface energy.......   0.00000E+00
 external work..................  -2.73899E-03
 eroded kinetic energy..........   0.00000E+00
 eroded internal energy.........   0.00000E+00
 eroded hourglass energy........   0.00000E+00
 total energy...................   2.04447E+03
 total energy / initial energy..   1.00104E+00
 energy ratio w/o eroded energy.   1.00104E+00
 global x velocity..............   3.05878E-22
 global y velocity..............   3.91126E-06
 global z velocity..............   3.24794E-23
 time per zone cycle.(nanosec)..             0


 dt of cycle       8 is controlled by shell          24917 of part         4

 time...........................   1.79147E-05
 time step......................   2.55925E-06
 kinetic energy.................   4.39440E-01
 internal energy................   2.05129E+03
 spring and damper energy.......   1.00000E-20
 hourglass energy ..............   3.51676E-05
 system damping energy..........   0.00000E+00
 sliding interface energy.......   0.00000E+00
 external work..................  -4.80208E-02
 eroded kinetic energy..........   0.00000E+00
 eroded internal energy.........   0.00000E+00
 eroded hourglass energy........   0.00000E+00
 total energy...................   2.05173E+03
 total energy / initial energy..   1.00462E+00
 energy ratio w/o eroded energy.   1.00462E+00
 global x velocity..............   1.09892E-21
 global y velocity..............   8.57580E-06
 global z velocity..............   2.41076E-20
 time per zone cycle.(nanosec)..             0


 dt of cycle      12 is controlled by shell          24917 of part         4

 time...........................   2.81517E-05
 time step......................   2.55925E-06
 kinetic energy.................   7.65559E-01
 internal energy................   2.05970E+03
 spring and damper energy.......   1.00000E-20
 hourglass energy ..............   3.93371E-04
 system damping energy..........   0.00000E+00
 sliding interface energy.......   0.00000E+00
 external work..................  -2.20317E-01
 eroded kinetic energy..........   0.00000E+00
 eroded internal energy.........   0.00000E+00
 eroded hourglass energy........   0.00000E+00
 total energy...................   2.06046E+03
 total energy / initial energy..   1.00898E+00
 energy ratio w/o eroded energy.   1.00898E+00
 global x velocity..............   1.97490E-21
 global y velocity..............   1.33531E-05
 global z velocity..............   1.25036E-17
 time per zone cycle.(nanosec)..             0


 dt of cycle      16 is controlled by shell          24917 of part         4

 time...........................   3.83887E-05
 time step......................   2.55925E-06
 kinetic energy.................   1.13012E+00
 internal energy................   2.06746E+03
 spring and damper energy.......   1.00000E-20
 hourglass energy ..............   1.57686E-03
 system damping energy..........   0.00000E+00
 sliding interface energy.......   0.00000E+00
 external work..................  -6.08721E-01
 eroded kinetic energy..........   0.00000E+00
 eroded internal energy.........   0.00000E+00
 eroded hourglass energy........   0.00000E+00
 total energy...................   2.06859E+03
 total energy / initial energy..   1.01315E+00
 energy ratio w/o eroded energy.   1.01315E+00
 global x velocity..............   4.98439E-21
 global y velocity..............   1.80874E-05
 global z velocity..............   3.81054E-16
 time per zone cycle.(nanosec)..             0


 dt of cycle      20 is controlled by shell          24917 of part         4

 time...........................   4.86257E-05
 time step......................   2.55925E-06
 kinetic energy.................   1.52859E+00
 internal energy................   2.07402E+03
 spring and damper energy.......   1.00000E-20
 hourglass energy ..............   3.66622E-03
 system damping energy..........   0.00000E+00
 sliding interface energy.......   0.00000E+00
 external work..................  -1.27240E+00
 eroded kinetic energy..........   0.00000E+00
 eroded internal energy.........   0.00000E+00
 eroded hourglass energy........   0.00000E+00
 total energy...................   2.07555E+03
 total energy / initial energy..   1.01689E+00
 energy ratio w/o eroded energy.   1.01689E+00
 global x velocity..............   7.66830E-21
 global y velocity..............   2.27240E-05
 global z velocity..............   4.28957E-15
 time per zone cycle.(nanosec)..             0


 dt of cycle      24 is controlled by shell          24917 of part         4

 time...........................   5.88626E-05
 time step......................   2.55925E-06
 kinetic energy.................   1.95388E+00
 internal energy................   2.07973E+03
 spring and damper energy.......   1.00000E-20
 hourglass energy ..............   6.25255E-03
 system damping energy..........   0.00000E+00
 sliding interface energy.......   0.00000E+00
 external work..................  -2.22673E+00
 eroded kinetic energy..........   0.00000E+00
 eroded internal energy.........   0.00000E+00
 eroded hourglass energy........   0.00000E+00
 total energy...................   2.08169E+03
 total energy / initial energy..   1.02038E+00
 energy ratio w/o eroded energy.   1.02038E+00
 global x velocity..............  -1.35621E-20
 global y velocity..............   2.72906E-05
 global z velocity..............   2.54130E-14
 time per zone cycle.(nanosec)..             0


 dt of cycle      28 is controlled by shell          24917 of part         4

 time...........................   6.90996E-05
 time step......................   2.55925E-06
 kinetic energy.................   2.41006E+00
 internal energy................   2.08499E+03
 spring and damper energy.......   1.00000E-20
 hourglass energy ..............   8.91971E-03
 system damping energy..........   0.00000E+00
 sliding interface energy.......   0.00000E+00
 external work..................  -3.45792E+00
 eroded kinetic energy..........   0.00000E+00
 eroded internal energy.........   0.00000E+00
 eroded hourglass energy........   0.00000E+00
 total energy...................   2.08741E+03
 total energy / initial energy..   1.02380E+00
 energy ratio w/o eroded energy.   1.02380E+00
 global x velocity..............  -5.94705E-20
 global y velocity..............   3.18265E-05
 global z velocity..............   9.08695E-14
 time per zone cycle.(nanosec)..             0


 dt of cycle      32 is controlled by shell          24917 of part         4

 time...........................   7.93366E-05
 time step......................   2.55925E-06
 kinetic energy.................   2.89969E+00
 internal energy................   2.08990E+03
 spring and damper energy.......   1.00000E-20
 hourglass energy ..............   1.14981E-02
 system damping energy..........   0.00000E+00
 sliding interface energy.......   0.00000E+00
 external work..................  -4.94653E+00
 eroded kinetic energy..........   0.00000E+00
 eroded internal energy.........   0.00000E+00
 eroded hourglass energy........   0.00000E+00
 total energy...................   2.09281E+03
 total energy / initial energy..   1.02720E+00
 energy ratio w/o eroded energy.   1.02720E+00
 global x velocity..............   5.56681E-20
 global y velocity..............   3.63426E-05
 global z velocity..............   1.70454E-13
 time per zone cycle.(nanosec)..             0


 dt of cycle      36 is controlled by shell          24917 of part         4

 time...........................   8.95736E-05
 time step......................   2.55925E-06
 kinetic energy.................   3.41660E+00
 internal energy................   2.09441E+03
 spring and damper energy.......   1.00000E-20
 hourglass energy ..............   1.39659E-02
 system damping energy..........   0.00000E+00
 sliding interface energy.......   0.00000E+00
 external work..................  -6.67950E+00
 eroded kinetic energy..........   0.00000E+00
 eroded internal energy.........   0.00000E+00
 eroded hourglass energy........   0.00000E+00
 total energy...................   2.09784E+03
 total energy / initial energy..   1.03054E+00
 energy ratio w/o eroded energy.   1.03054E+00
 global x velocity..............   6.97828E-19
 global y velocity..............   4.08297E-05
 global z velocity..............  -8.56619E-14
 time per zone cycle.(nanosec)..             0


 dt of cycle      40 is controlled by shell          24917 of part         4

 time...........................   9.98106E-05
 time step......................   2.55925E-06
 kinetic energy.................   3.95714E+00
 internal energy................   2.09852E+03
 spring and damper energy.......   1.00000E-20
 hourglass energy ..............   1.63224E-02
 system damping energy..........   0.00000E+00
 sliding interface energy.......   0.00000E+00
 external work..................  -8.65624E+00
 eroded kinetic energy..........   0.00000E+00
 eroded internal energy.........   0.00000E+00
 eroded hourglass energy........   0.00000E+00
 total energy...................   2.10250E+03
 total energy / initial energy..   1.03383E+00
 energy ratio w/o eroded energy.   1.03383E+00
 global x velocity..............  -1.40235E-18
 global y velocity..............   4.52877E-05
 global z velocity..............  -1.88406E-12
 time per zone cycle.(nanosec)..             0


 dt of cycle      43 is controlled by shell          24917 of part         4

 time...........................   1.07488E-04
 time step......................   2.55925E-06
 kinetic energy.................   4.37938E+00
 internal energy................   2.10139E+03
 spring and damper energy.......   1.00000E-20
 hourglass energy ..............   1.80475E-02
 system damping energy..........   0.00000E+00
 sliding interface energy.......   0.00000E+00
 external work..................  -1.03004E+01
 eroded kinetic energy..........   0.00000E+00
 eroded internal energy.........   0.00000E+00
 eroded hourglass energy........   0.00000E+00
 total energy...................   2.10578E+03
 total energy / initial energy..   1.03629E+00
 energy ratio w/o eroded energy.   1.03629E+00
 global x velocity..............  -1.01034E-18
 global y velocity..............   4.86174E-05
 global z velocity..............  -5.82326E-12
 time per zone cycle.(nanosec)..             0


 dt of cycle      47 is controlled by shell          24917 of part         4

 time...........................   1.17725E-04
 time step......................   2.55925E-06
 kinetic energy.................   4.96409E+00
 internal energy................   2.10493E+03
 spring and damper energy.......   1.00000E-20
 hourglass energy ..............   2.03078E-02
 system damping energy..........   0.00000E+00
 sliding interface energy.......   0.00000E+00
 external work..................  -1.27082E+01
 eroded kinetic energy..........   0.00000E+00
 eroded internal energy.........   0.00000E+00
 eroded hourglass energy........   0.00000E+00
 total energy...................   2.10992E+03
 total energy / initial energy..   1.03955E+00
 energy ratio w/o eroded energy.   1.03955E+00
 global x velocity..............  -1.29304E-18
 global y velocity..............   5.30367E-05
 global z velocity..............  -1.80294E-11
 time per zone cycle.(nanosec)..             0


 dt of cycle      51 is controlled by shell          24917 of part         4

 time...........................   1.27962E-04
 time step......................   2.55925E-06
 kinetic energy.................   5.56877E+00
 internal energy................   2.10807E+03
 spring and damper energy.......   1.00000E-20
 hourglass energy ..............   2.25198E-02
 system damping energy..........   0.00000E+00
 sliding interface energy.......   0.00000E+00
 external work..................  -1.53627E+01
 eroded kinetic energy..........   0.00000E+00
 eroded internal energy.........   0.00000E+00
 eroded hourglass energy........   0.00000E+00
 total energy...................   2.11366E+03
 total energy / initial energy..   1.04276E+00
 energy ratio w/o eroded energy.   1.04276E+00
 global x velocity..............  -1.46603E-18
 global y velocity..............   5.74161E-05
 global z velocity..............  -4.37478E-11
 time per zone cycle.(nanosec)..             0


 dt of cycle      55 is controlled by shell          24917 of part         4

 time...........................   1.38199E-04
 time step......................   2.55925E-06
 kinetic energy.................   6.18872E+00
 internal energy................   2.11069E+03
 spring and damper energy.......   1.00000E-20
 hourglass energy ..............   2.46549E-02
 system damping energy..........   0.00000E+00
 sliding interface energy.......   0.00000E+00
 external work..................  -1.82612E+01
 eroded kinetic energy..........   0.00000E+00
 eroded internal energy.........   0.00000E+00
 eroded hourglass energy........   0.00000E+00
 total energy...................   2.11690E+03
 total energy / initial energy..   1.04586E+00
 energy ratio w/o eroded energy.   1.04586E+00
 global x velocity..............  -4.34393E-19
 global y velocity..............   6.17411E-05
 global z velocity..............  -9.03404E-11
 time per zone cycle.(nanosec)..             0


 dt of cycle      59 is controlled by shell          24917 of part         4

 time...........................   1.48436E-04
 time step......................   2.55925E-06
 kinetic energy.................   6.82252E+00
 internal energy................   2.11278E+03
 spring and damper energy.......   1.00000E-20
 hourglass energy ..............   2.66705E-02
 system damping energy..........   0.00000E+00
 sliding interface energy.......   0.00000E+00
 external work..................  -2.13931E+01
 eroded kinetic energy..........   0.00000E+00
 eroded internal energy.........   0.00000E+00
 eroded hourglass energy........   0.00000E+00
 total energy...................   2.11963E+03
 total energy / initial energy..   1.04883E+00
 energy ratio w/o eroded energy.   1.04883E+00
 global x velocity..............   1.33096E-18
 global y velocity..............   6.60141E-05
 global z velocity..............  -1.65649E-10
 time per zone cycle.(nanosec)..             0


 dt of cycle      63 is controlled by shell          24917 of part         4

 time...........................   1.58673E-04
 time step......................   2.55925E-06
 kinetic energy.................   7.47107E+00
 internal energy................   2.11444E+03
 spring and damper energy.......   1.00000E-20
 hourglass energy ..............   2.85438E-02
 system damping energy..........   0.00000E+00
 sliding interface energy.......   0.00000E+00
 external work..................  -2.47438E+01
 eroded kinetic energy..........   0.00000E+00
 eroded internal energy.........   0.00000E+00
 eroded hourglass energy........   0.00000E+00
 total energy...................   2.12194E+03
 total energy / initial energy..   1.05171E+00
 energy ratio w/o eroded energy.   1.05171E+00
 global x velocity..............   3.25288E-18
 global y velocity..............   7.02487E-05
 global z velocity..............  -2.76543E-10
 time per zone cycle.(nanosec)..             0


 dt of cycle      67 is controlled by shell          24917 of part         4

 time...........................   1.68910E-04
 time step......................   2.55925E-06
 kinetic energy.................   8.13488E+00
 internal energy................   2.11574E+03
 spring and damper energy.......   1.00000E-20
 hourglass energy ..............   3.02845E-02
 system damping energy..........   0.00000E+00
 sliding interface energy.......   0.00000E+00
 external work..................  -2.83019E+01
 eroded kinetic energy..........   0.00000E+00
 eroded internal energy.........   0.00000E+00
 eroded hourglass energy........   0.00000E+00
 total energy...................   2.12390E+03
 total energy / initial energy..   1.05455E+00
 energy ratio w/o eroded energy.   1.05455E+00
 global x velocity..............   4.96957E-18
 global y velocity..............   7.44559E-05
 global z velocity..............  -4.28093E-10
 time per zone cycle.(nanosec)..             0


 dt of cycle      71 is controlled by shell          24917 of part         4

 time...........................   1.79147E-04
 time step......................   2.55925E-06
 kinetic energy.................   8.81307E+00
 internal energy................   2.11671E+03
 spring and damper energy.......   1.00000E-20
 hourglass energy ..............   3.19115E-02
 system damping energy..........   0.00000E+00
 sliding interface energy.......   0.00000E+00
 external work..................  -3.20618E+01
 eroded kinetic energy..........   0.00000E+00
 eroded internal energy.........   0.00000E+00
 eroded hourglass energy........   0.00000E+00
 total energy...................   2.12556E+03
 total energy / initial energy..   1.05734E+00
 energy ratio w/o eroded energy.   1.05734E+00
 global x velocity..............   5.01540E-18
 global y velocity..............   7.86382E-05
 global z velocity..............  -6.23458E-10
 time per zone cycle.(nanosec)..             0


 dt of cycle      75 is controlled by shell          24917 of part         4

 time...........................   1.89384E-04
 time step......................   2.55925E-06
 kinetic energy.................   9.50322E+00
 internal energy................   2.11735E+03
 spring and damper energy.......   1.00000E-20
 hourglass energy ..............   3.34393E-02
 system damping energy..........   0.00000E+00
 sliding interface energy.......   0.00000E+00
 external work..................  -3.60224E+01
 eroded kinetic energy..........   0.00000E+00
 eroded internal energy.........   0.00000E+00
 eroded hourglass energy........   0.00000E+00
 total energy...................   2.12689E+03
 total energy / initial energy..   1.06009E+00
 energy ratio w/o eroded energy.   1.06009E+00
 global x velocity..............   7.69821E-19
 global y velocity..............   8.27928E-05
 global z velocity..............  -8.63773E-10
 time per zone cycle.(nanosec)..             0


 dt of cycle      79 is controlled by shell          24917 of part         4

 time...........................   1.99621E-04
 time step......................   2.55925E-06
 kinetic energy.................   1.02026E+01
 internal energy................   2.11766E+03
 spring and damper energy.......   1.00000E-20
 hourglass energy ..............   3.48781E-02
 system damping energy..........   0.00000E+00
 sliding interface energy.......   0.00000E+00
 external work..................  -4.01815E+01
 eroded kinetic energy..........   0.00000E+00
 eroded internal energy.........   0.00000E+00
 eroded hourglass energy........   0.00000E+00
 total energy...................   2.12790E+03
 total energy / initial energy..   1.06280E+00
 energy ratio w/o eroded energy.   1.06280E+00
 global x velocity..............  -1.04798E-17
 global y velocity..............   8.69167E-05
 global z velocity..............  -1.14855E-09
 time per zone cycle.(nanosec)..             0


 dt of cycle      83 is controlled by shell          24917 of part         4

 time...........................   2.09858E-04
 time step......................   2.55925E-06
 kinetic energy.................   1.09092E+01
 internal energy................   2.11764E+03
 spring and damper energy.......   1.00000E-20
 hourglass energy ..............   3.62355E-02
 system damping energy..........   0.00000E+00
 sliding interface energy.......   0.00000E+00
 external work..................  -4.45351E+01
 eroded kinetic energy..........   0.00000E+00
 eroded internal energy.........   0.00000E+00
 eroded hourglass energy........   0.00000E+00
 total energy...................   2.12858E+03
 total energy / initial energy..   1.06546E+00
 energy ratio w/o eroded energy.   1.06546E+00
 global x velocity..............  -2.31632E-17
 global y velocity..............   9.10090E-05
 global z velocity..............  -1.47632E-09
 time per zone cycle.(nanosec)..             0


 dt of cycle      86 is controlled by shell          24917 of part         4

 time...........................   2.17536E-04
 time step......................   2.55925E-06
 kinetic energy.................   1.14429E+01
 internal energy................   2.11742E+03
 spring and damper energy.......   1.00000E-20
 hourglass energy ..............   3.72035E-02
 system damping energy..........   0.00000E+00
 sliding interface energy.......   0.00000E+00
 external work..................  -4.79244E+01
 eroded kinetic energy..........   0.00000E+00
 eroded internal energy.........   0.00000E+00
 eroded hourglass energy........   0.00000E+00
 total energy...................   2.12890E+03
 total energy / initial energy..   1.06742E+00
 energy ratio w/o eroded energy.   1.06742E+00
 global x velocity..............  -2.05463E-17
 global y velocity..............   9.40581E-05
 global z velocity..............  -1.74889E-09
 time per zone cycle.(nanosec)..             0


 dt of cycle      90 is controlled by shell          24917 of part         4

 time...........................   2.27773E-04
 time step......................   2.55925E-06
 kinetic energy.................   1.21589E+01
 internal energy................   2.11685E+03
 spring and damper energy.......   1.00000E-20
 hourglass energy ..............   3.84307E-02
 system damping energy..........   0.00000E+00
 sliding interface energy.......   0.00000E+00
 external work..................  -5.26035E+01
 eroded kinetic energy..........   0.00000E+00
 eroded internal energy.........   0.00000E+00
 eroded hourglass energy........   0.00000E+00
 total energy...................   2.12905E+03
 total energy / initial energy..   1.07001E+00
 energy ratio w/o eroded energy.   1.07001E+00
 global x velocity..............   4.16385E-17
 global y velocity..............   9.80982E-05
 global z velocity..............  -2.14564E-09
 time per zone cycle.(nanosec)..             0


 dt of cycle      94 is controlled by shell          24917 of part         4

 time...........................   2.38010E-04
 time step......................   2.55925E-06
 kinetic energy.................   1.28791E+01
 internal energy................   2.11599E+03
 spring and damper energy.......   1.00000E-20
 hourglass energy ..............   3.95888E-02
 system damping energy..........   0.00000E+00
 sliding interface energy.......   0.00000E+00
 external work..................  -5.74588E+01
 eroded kinetic energy..........   0.00000E+00
 eroded internal energy.........   0.00000E+00
 eroded hourglass energy........   0.00000E+00
 total energy...................   2.12891E+03
 total energy / initial energy..   1.07256E+00
 energy ratio w/o eroded energy.   1.07256E+00
 global x velocity..............   2.74027E-16
 global y velocity..............   1.02111E-04
 global z velocity..............  -2.57732E-09
 time per zone cycle.(nanosec)..             0


 dt of cycle      98 is controlled by shell          24917 of part         4

 time...........................   2.48247E-04
 time step......................   2.55925E-06
 kinetic energy.................   1.36028E+01
 internal energy................   2.11486E+03
 spring and damper energy.......   1.00000E-20
 hourglass energy ..............   4.06819E-02
 system damping energy..........   0.00000E+00
 sliding interface energy.......   0.00000E+00
 external work..................  -6.24828E+01
 eroded kinetic energy..........   0.00000E+00
 eroded internal energy.........   0.00000E+00
 eroded hourglass energy........   0.00000E+00
 total energy...................   2.12850E+03
 total energy / initial energy..   1.07507E+00
 energy ratio w/o eroded energy.   1.07507E+00
 global x velocity..............   9.14141E-16
 global y velocity..............   1.06098E-04
 global z velocity..............  -3.04002E-09
 time per zone cycle.(nanosec)..             0


 dt of cycle     102 is controlled by shell          24917 of part         4

 time...........................   2.58484E-04
 time step......................   2.55925E-06
 kinetic energy.................   1.43293E+01
 internal energy................   2.11347E+03
 spring and damper energy.......   1.00000E-20
 hourglass energy ..............   4.17143E-02
 system damping energy..........   0.00000E+00
 sliding interface energy.......   0.00000E+00
 external work..................  -6.76682E+01
 eroded kinetic energy..........   0.00000E+00
 eroded internal energy.........   0.00000E+00
 eroded hourglass energy........   0.00000E+00
 total energy...................   2.12784E+03
 total energy / initial energy..   1.07756E+00
 energy ratio w/o eroded energy.   1.07756E+00
 global x velocity..............   2.48177E-15
 global y velocity..............   1.10063E-04
 global z velocity..............  -3.52918E-09
 time per zone cycle.(nanosec)..             0


 dt of cycle     106 is controlled by shell          24917 of part         4

 time...........................   2.68721E-04
 time step......................   2.55925E-06
 kinetic energy.................   1.50578E+01
 internal energy................   2.11185E+03
 spring and damper energy.......   1.00000E-20
 hourglass energy ..............   4.26892E-02
 system damping energy..........   0.00000E+00
 sliding interface energy.......   0.00000E+00
 external work..................  -7.30080E+01
 eroded kinetic energy..........   0.00000E+00
 eroded internal energy.........   0.00000E+00
 eroded hourglass energy........   0.00000E+00
 total energy...................   2.12695E+03
 total energy / initial energy..   1.08003E+00
 energy ratio w/o eroded energy.   1.08003E+00
 global x velocity..............   6.04759E-15
 global y velocity..............   1.14006E-04
 global z velocity..............  -4.03974E-09
 time per zone cycle.(nanosec)..             0


 dt of cycle     110 is controlled by shell          24917 of part         4

 time...........................   2.78958E-04
 time step......................   2.55925E-06
 kinetic energy.................   1.57880E+01
 internal energy................   2.11002E+03
 spring and damper energy.......   1.00000E-20
 hourglass energy ..............   4.36095E-02
 system damping energy..........   0.00000E+00
 sliding interface energy.......   0.00000E+00
 external work..................  -7.84943E+01
 eroded kinetic energy..........   0.00000E+00
 eroded internal energy.........   0.00000E+00
 eroded hourglass energy........   0.00000E+00
 total energy...................   2.12585E+03
 total energy / initial energy..   1.08249E+00
 energy ratio w/o eroded energy.   1.08249E+00
 global x velocity..............   1.36605E-14
 global y velocity..............   1.17930E-04
 global z velocity..............  -4.56635E-09
 time per zone cycle.(nanosec)..             0


 dt of cycle     114 is controlled by shell          24917 of part         4

 time...........................   2.89195E-04
 time step......................   2.55925E-06
 kinetic energy.................   1.65200E+01
 internal energy................   2.10802E+03
 spring and damper energy.......   1.00000E-20
 hourglass energy ..............   4.44783E-02
 system damping energy..........   0.00000E+00
 sliding interface energy.......   0.00000E+00
 external work..................  -8.41179E+01
 eroded kinetic energy..........   0.00000E+00
 eroded internal energy.........   0.00000E+00
 eroded hourglass energy........   0.00000E+00
 total energy...................   2.12459E+03
 total energy / initial energy..   1.08495E+00
 energy ratio w/o eroded energy.   1.08495E+00
 global x velocity..............   2.89519E-14
 global y velocity..............   1.21838E-04
 global z velocity..............  -5.10353E-09
 time per zone cycle.(nanosec)..             0


 dt of cycle     118 is controlled by shell          24917 of part         4

 time...........................   2.99432E-04
 time step......................   2.55925E-06
 kinetic energy.................   1.72545E+01
 internal energy................   2.10589E+03
 spring and damper energy.......   1.00000E-20
 hourglass energy ..............   4.52988E-02
 system damping energy..........   0.00000E+00
 sliding interface energy.......   0.00000E+00
 external work..................  -8.98672E+01
 eroded kinetic energy..........   0.00000E+00
 eroded internal energy.........   0.00000E+00
 eroded hourglass energy........   0.00000E+00
 total energy...................   2.12319E+03
 total energy / initial energy..   1.08743E+00
 energy ratio w/o eroded energy.   1.08743E+00
 global x velocity..............   5.76413E-14
 global y velocity..............   1.25733E-04
 global z velocity..............  -5.64592E-09
 time per zone cycle.(nanosec)..             0


 dt of cycle     122 is controlled by shell          24917 of part         4

 time...........................   3.09669E-04
 time step......................   2.55925E-06
 kinetic energy.................   1.79922E+01
 internal energy................   2.10368E+03
 spring and damper energy.......   1.00000E-20
 hourglass energy ..............   4.60737E-02
 system damping energy..........   0.00000E+00
 sliding interface energy.......   0.00000E+00
 external work..................  -9.57284E+01
 eroded kinetic energy..........   0.00000E+00
 eroded internal energy.........   0.00000E+00
 eroded hourglass energy........   0.00000E+00
 total energy...................   2.12171E+03
 total energy / initial energy..   1.08995E+00
 energy ratio w/o eroded energy.   1.08995E+00
 global x velocity..............   1.07674E-13
 global y velocity..............   1.29620E-04
 global z velocity..............  -6.18725E-09
 time per zone cycle.(nanosec)..             0


 dt of cycle     126 is controlled by shell          24917 of part         4

 time...........................   3.19906E-04
 time step......................   2.55925E-06
 kinetic energy.................   1.87341E+01
 internal energy................   2.10142E+03
 spring and damper energy.......   1.00000E-20
 hourglass energy ..............   4.68061E-02
 system damping energy..........   0.00000E+00
 sliding interface energy.......   0.00000E+00
 external work..................  -1.01687E+02
 eroded kinetic energy..........   0.00000E+00
 eroded internal energy.........   0.00000E+00
 eroded hourglass energy........   0.00000E+00
 total energy...................   2.12020E+03
 total energy / initial energy..   1.09251E+00
 energy ratio w/o eroded energy.   1.09251E+00
 global x velocity..............   1.88535E-13
 global y velocity..............   1.33503E-04
 global z velocity..............  -6.72180E-09
 time per zone cycle.(nanosec)..             0


 dt of cycle     129 is controlled by shell          24917 of part         4

 time...........................   3.27583E-04
 time step......................   2.55925E-06
 kinetic energy.................   1.92939E+01
 internal energy................   2.09972E+03
 spring and damper energy.......   1.00000E-20
 hourglass energy ..............   4.73292E-02
 system damping energy..........   0.00000E+00
 sliding interface energy.......   0.00000E+00
 external work..................  -1.06210E+02
 eroded kinetic energy..........   0.00000E+00
 eroded internal energy.........   0.00000E+00
 eroded hourglass energy........   0.00000E+00
 total energy...................   2.11906E+03
 total energy / initial energy..   1.09448E+00
 energy ratio w/o eroded energy.   1.09448E+00
 global x velocity..............   2.75038E-13
 global y velocity..............   1.36414E-04
 global z velocity..............  -7.11485E-09
 time per zone cycle.(nanosec)..             0


 dt of cycle     133 is controlled by shell          24917 of part         4

 time...........................   3.37820E-04
 time step......................   2.55925E-06
 kinetic energy.................   2.00456E+01
 internal energy................   2.09748E+03
 spring and damper energy.......   1.00000E-20
 hourglass energy ..............   4.79943E-02
 system damping energy..........   0.00000E+00
 sliding interface energy.......   0.00000E+00
 external work..................  -1.12301E+02
 eroded kinetic energy..........   0.00000E+00
 eroded internal energy.........   0.00000E+00
 eroded hourglass energy........   0.00000E+00
 total energy...................   2.11757E+03
 total energy / initial energy..   1.09716E+00
 energy ratio w/o eroded energy.   1.09716E+00
 global x velocity..............   4.30066E-13
 global y velocity..............   1.40296E-04
 global z velocity..............  -7.62445E-09
 time per zone cycle.(nanosec)..             0


 dt of cycle     137 is controlled by shell          24917 of part         4

 time...........................   3.48057E-04
 time step......................   2.55925E-06
 kinetic energy.................   2.08039E+01
 internal energy................   2.09530E+03
 spring and damper energy.......   1.00000E-20
 hourglass energy ..............   4.86262E-02
 system damping energy..........   0.00000E+00
 sliding interface energy.......   0.00000E+00
 external work..................  -1.18450E+02
 eroded kinetic energy..........   0.00000E+00
 eroded internal energy.........   0.00000E+00
 eroded hourglass energy........   0.00000E+00
 total energy...................   2.11615E+03
 total energy / initial energy..   1.09993E+00
 energy ratio w/o eroded energy.   1.09993E+00
 global x velocity..............   6.31126E-13
 global y velocity..............   1.44181E-04
 global z velocity..............  -8.11310E-09
 time per zone cycle.(nanosec)..             0


 dt of cycle     141 is controlled by shell          24917 of part         4

 time...........................   3.58294E-04
 time step......................   2.55925E-06
 kinetic energy.................   2.15690E+01
 internal energy................   2.09321E+03
 spring and damper energy.......   1.00000E-20
 hourglass energy ..............   4.92287E-02
 system damping energy..........   0.00000E+00
 sliding interface energy.......   0.00000E+00
 external work..................  -1.24645E+02
 eroded kinetic energy..........   0.00000E+00
 eroded internal energy.........   0.00000E+00
 eroded hourglass energy........   0.00000E+00
 total energy...................   2.11483E+03
 total energy / initial energy..   1.10280E+00
 energy ratio w/o eroded energy.   1.10280E+00
 global x velocity..............   8.70843E-13
 global y velocity..............   1.48071E-04
 global z velocity..............  -8.57651E-09
 time per zone cycle.(nanosec)..             0


 dt of cycle     145 is controlled by shell          24917 of part         4

 time...........................   3.68531E-04
 time step......................   2.55925E-06
 kinetic energy.................   2.23406E+01
 internal energy................   2.09124E+03
 spring and damper energy.......   1.00000E-20
 hourglass energy ..............   4.98053E-02
 system damping energy..........   0.00000E+00
 sliding interface energy.......   0.00000E+00
 external work..................  -1.30876E+02
 eroded kinetic energy..........   0.00000E+00
 eroded internal energy.........   0.00000E+00
 eroded hourglass energy........   0.00000E+00
 total energy...................   2.11363E+03
 total energy / initial energy..   1.10576E+00
 energy ratio w/o eroded energy.   1.10576E+00
 global x velocity..............   1.13330E-12
 global y velocity..............   1.51964E-04
 global z velocity..............  -9.01082E-09
 time per zone cycle.(nanosec)..             0


 dt of cycle     149 is controlled by shell          24917 of part         4

 time...........................   3.78768E-04
 time step......................   2.55925E-06
 kinetic energy.................   2.31183E+01
 internal energy................   2.08939E+03
 spring and damper energy.......   1.00000E-20
 hourglass energy ..............   5.03589E-02
 system damping energy..........   0.00000E+00
 sliding interface energy.......   0.00000E+00
 external work..................  -1.37138E+02
 eroded kinetic energy..........   0.00000E+00
 eroded internal energy.........   0.00000E+00
 eroded hourglass energy........   0.00000E+00
 total energy...................   2.11256E+03
 total energy / initial energy..   1.10883E+00
 energy ratio w/o eroded energy.   1.10883E+00
 global x velocity..............   1.39776E-12
 global y velocity..............   1.55862E-04
 global z velocity..............  -9.41211E-09
 time per zone cycle.(nanosec)..             0


 dt of cycle     153 is controlled by shell          24917 of part         4

 time...........................   3.89005E-04
 time step......................   2.55925E-06
 kinetic energy.................   2.39012E+01
 internal energy................   2.08767E+03
 spring and damper energy.......   1.00000E-20
 hourglass energy ..............   5.08921E-02
 system damping energy..........   0.00000E+00
 sliding interface energy.......   0.00000E+00
 external work..................  -1.43426E+02
 eroded kinetic energy..........   0.00000E+00
 eroded internal energy.........   0.00000E+00
 eroded hourglass energy........   0.00000E+00
 total energy...................   2.11162E+03
 total energy / initial energy..   1.11201E+00
 energy ratio w/o eroded energy.   1.11201E+00
 global x velocity..............   1.64534E-12
 global y velocity..............   1.59762E-04
 global z velocity..............  -9.77793E-09
 time per zone cycle.(nanosec)..             0


 dt of cycle     157 is controlled by shell          24917 of part         4

 time...........................   3.99242E-04
 time step......................   2.55925E-06
 kinetic energy.................   2.46883E+01
 internal energy................   2.08607E+03
 spring and damper energy.......   1.00000E-20
 hourglass energy ..............   5.14073E-02
 system damping energy..........   0.00000E+00
 sliding interface energy.......   0.00000E+00
 external work..................  -1.49739E+02
 eroded kinetic energy..........   0.00000E+00
 eroded internal energy.........   0.00000E+00
 eroded hourglass energy........   0.00000E+00
 total energy...................   2.11081E+03
 total energy / initial energy..   1.11529E+00
 energy ratio w/o eroded energy.   1.11529E+00
 global x velocity..............   1.86692E-12
 global y velocity..............   1.63661E-04
 global z velocity..............  -1.01071E-08
 time per zone cycle.(nanosec)..             0


 dt of cycle     161 is controlled by shell          24917 of part         4

 time...........................   4.09479E-04
 time step......................   2.55925E-06
 kinetic energy.................   2.54785E+01
 internal energy................   2.08457E+03
 spring and damper energy.......   1.00000E-20
 hourglass energy ..............   5.19067E-02
 system damping energy..........   0.00000E+00
 sliding interface energy.......   0.00000E+00
 external work..................  -1.56076E+02
 eroded kinetic energy..........   0.00000E+00
 eroded internal energy.........   0.00000E+00
 eroded hourglass energy........   0.00000E+00
 total energy...................   2.11010E+03
 total energy / initial energy..   1.11866E+00
 energy ratio w/o eroded energy.   1.11866E+00
 global x velocity..............   2.06745E-12
 global y velocity..............   1.67556E-04
 global z velocity..............  -1.04000E-08
 time per zone cycle.(nanosec)..             0


 dt of cycle     165 is controlled by shell          24917 of part         4

 time...........................   4.19716E-04
 time step......................   2.55925E-06
 kinetic energy.................   2.62709E+01
 internal energy................   2.08318E+03
 spring and damper energy.......   1.00000E-20
 hourglass energy ..............   5.23916E-02
 system damping energy..........   0.00000E+00
 sliding interface energy.......   0.00000E+00
 external work..................  -1.62437E+02
 eroded kinetic energy..........   0.00000E+00
 eroded internal energy.........   0.00000E+00
 eroded hourglass energy........   0.00000E+00
 total energy...................   2.10950E+03
 total energy / initial energy..   1.12213E+00
 energy ratio w/o eroded energy.   1.12213E+00
 global x velocity..............   2.26537E-12
 global y velocity..............   1.71446E-04
 global z velocity..............  -1.06573E-08
 time per zone cycle.(nanosec)..             0


 dt of cycle     169 is controlled by shell          24917 of part         4

 time...........................   4.29953E-04
 time step......................   2.55925E-06
 kinetic energy.................   2.70649E+01
 internal energy................   2.08189E+03
 spring and damper energy.......   1.00000E-20
 hourglass energy ..............   5.28629E-02
 system damping energy..........   0.00000E+00
 sliding interface energy.......   0.00000E+00
 external work..................  -1.68822E+02
 eroded kinetic energy..........   0.00000E+00
 eroded internal energy.........   0.00000E+00
 eroded hourglass energy........   0.00000E+00
 total energy...................   2.10900E+03
 total energy / initial energy..   1.12569E+00
 energy ratio w/o eroded energy.   1.12569E+00
 global x velocity..............   2.48611E-12
 global y velocity..............   1.75328E-04
 global z velocity..............  -1.08802E-08
 time per zone cycle.(nanosec)..             0


 dt of cycle     172 is controlled by shell          24917 of part         4

 time...........................   4.37631E-04
 time step......................   2.55925E-06
 kinetic energy.................   2.76614E+01
 internal energy................   2.08098E+03
 spring and damper energy.......   1.00000E-20
 hourglass energy ..............   5.32077E-02
 system damping energy..........   0.00000E+00
 sliding interface energy.......   0.00000E+00
 external work..................  -1.73625E+02
 eroded kinetic energy..........   0.00000E+00
 eroded internal energy.........   0.00000E+00
 eroded hourglass energy........   0.00000E+00
 total energy...................   2.10869E+03
 total energy / initial energy..   1.12841E+00
 energy ratio w/o eroded energy.   1.12841E+00
 global x velocity..............   2.68130E-12
 global y velocity..............   1.78234E-04
 global z velocity..............  -1.10260E-08
 time per zone cycle.(nanosec)..             0


 dt of cycle     176 is controlled by shell          24917 of part         4

 time...........................   4.47868E-04
 time step......................   2.55925E-06
 kinetic energy.................   2.84582E+01
 internal energy................   2.07986E+03
 spring and damper energy.......   1.00000E-20
 hourglass energy ..............   5.36562E-02
 system damping energy..........   0.00000E+00
 sliding interface energy.......   0.00000E+00
 external work..................  -1.80045E+02
 eroded kinetic energy..........   0.00000E+00
 eroded internal energy.........   0.00000E+00
 eroded hourglass energy........   0.00000E+00
 total energy...................   2.10837E+03
 total energy / initial energy..   1.13213E+00
 energy ratio w/o eroded energy.   1.13213E+00
 global x velocity..............   2.99470E-12
 global y velocity..............   1.82105E-04
 global z velocity..............  -1.11936E-08
 time per zone cycle.(nanosec)..             0


 dt of cycle     180 is controlled by shell          24917 of part         4

 time...........................   4.58105E-04
 time step......................   2.55925E-06
 kinetic energy.................   2.92569E+01
 internal energy................   2.07886E+03
 spring and damper energy.......   1.00000E-20
 hourglass energy ..............   5.40919E-02
 system damping energy..........   0.00000E+00
 sliding interface energy.......   0.00000E+00
 external work..................  -1.86478E+02
 eroded kinetic energy..........   0.00000E+00
 eroded internal energy.........   0.00000E+00
 eroded hourglass energy........   0.00000E+00
 total energy...................   2.10817E+03
 total energy / initial energy..   1.13595E+00
 energy ratio w/o eroded energy.   1.13595E+00
 global x velocity..............   3.37642E-12
 global y velocity..............   1.85971E-04
 global z velocity..............  -1.13319E-08
 time per zone cycle.(nanosec)..             0


 dt of cycle     184 is controlled by shell          24917 of part         4

 time...........................   4.68342E-04
 time step......................   2.55925E-06
 kinetic energy.................   3.00580E+01
 internal energy................   2.07799E+03
 spring and damper energy.......   1.00000E-20
 hourglass energy ..............   5.45153E-02
 system damping energy..........   0.00000E+00
 sliding interface energy.......   0.00000E+00
 external work..................  -1.92920E+02
 eroded kinetic energy..........   0.00000E+00
 eroded internal energy.........   0.00000E+00
 eroded hourglass energy........   0.00000E+00
 total energy...................   2.10811E+03
 total energy / initial energy..   1.13987E+00
 energy ratio w/o eroded energy.   1.13987E+00
 global x velocity..............   3.82871E-12
 global y velocity..............   1.89835E-04
 global z velocity..............  -1.14422E-08
 time per zone cycle.(nanosec)..             0


 dt of cycle     188 is controlled by shell          24917 of part         4

 time...........................   4.78579E-04
 time step......................   2.55925E-06
 kinetic energy.................   3.08618E+01
 internal energy................   2.07727E+03
 spring and damper energy.......   1.00000E-20
 hourglass energy ..............   5.49268E-02
 system damping energy..........   0.00000E+00
 sliding interface energy.......   0.00000E+00
 external work..................  -1.99366E+02
 eroded kinetic energy..........   0.00000E+00
 eroded internal energy.........   0.00000E+00
 eroded hourglass energy........   0.00000E+00
 total energy...................   2.10819E+03
 total energy / initial energy..   1.14390E+00
 energy ratio w/o eroded energy.   1.14390E+00
 global x velocity..............   4.35308E-12
 global y velocity..............   1.93698E-04
 global z velocity..............  -1.15249E-08
 time per zone cycle.(nanosec)..             0


 dt of cycle     192 is controlled by shell          24917 of part         4

 time...........................   4.88816E-04
 time step......................   2.55925E-06
 kinetic energy.................   3.16685E+01
 internal energy................   2.07669E+03
 spring and damper energy.......   1.00000E-20
 hourglass energy ..............   5.53270E-02
 system damping energy..........   0.00000E+00
 sliding interface energy.......   0.00000E+00
 external work..................  -2.05811E+02
 eroded kinetic energy..........   0.00000E+00
 eroded internal energy.........   0.00000E+00
 eroded hourglass energy........   0.00000E+00
 total energy...................   2.10841E+03
 total energy / initial energy..   1.14804E+00
 energy ratio w/o eroded energy.   1.14804E+00
 global x velocity..............   4.95626E-12
 global y velocity..............   1.97562E-04
 global z velocity..............  -1.15798E-08
 time per zone cycle.(nanosec)..             0


 dt of cycle     196 is controlled by shell          24917 of part         4

 time...........................   4.99053E-04
 time step......................   2.55925E-06
 kinetic energy.................   3.24778E+01
 internal energy................   2.07626E+03
 spring and damper energy.......   1.00000E-20
 hourglass energy ..............   5.57171E-02
 system damping energy..........   0.00000E+00
 sliding interface energy.......   0.00000E+00
 external work..................  -2.12252E+02
 eroded kinetic energy..........   0.00000E+00
 eroded internal energy.........   0.00000E+00
 eroded hourglass energy........   0.00000E+00
 total energy...................   2.10880E+03
 total energy / initial energy..   1.15229E+00
 energy ratio w/o eroded energy.   1.15229E+00
 global x velocity..............   5.64759E-12
 global y velocity..............   2.01427E-04
 global z velocity..............  -1.16068E-08
 time per zone cycle.(nanosec)..             0


 dt of cycle     200 is controlled by shell          24917 of part         4

 time...........................   5.09290E-04
 time step......................   2.55925E-06
 kinetic energy.................   3.32894E+01
 internal energy................   2.07598E+03
 spring and damper energy.......   1.00000E-20
 hourglass energy ..............   5.60981E-02
 system damping energy..........   0.00000E+00
 sliding interface energy.......   0.00000E+00
 external work..................  -2.18689E+02
 eroded kinetic energy..........   0.00000E+00
 eroded internal energy.........   0.00000E+00
 eroded hourglass energy........   0.00000E+00
 total energy...................   2.10933E+03
 total energy / initial energy..   1.15665E+00
 energy ratio w/o eroded energy.   1.15665E+00
 global x velocity..............   6.43652E-12
 global y velocity..............   2.05291E-04
 global z velocity..............  -1.16064E-08
 time per zone cycle.(nanosec)..             0


 dt of cycle     204 is controlled by shell          24917 of part         4

 time...........................   5.19527E-04
 time step......................   2.55925E-06
 kinetic energy.................   3.41026E+01
 internal energy................   2.07584E+03
 spring and damper energy.......   1.00000E-20
 hourglass energy ..............   5.64713E-02
 system damping energy..........   0.00000E+00
 sliding interface energy.......   0.00000E+00
 external work..................  -2.25122E+02
 eroded kinetic energy..........   0.00000E+00
 eroded internal energy.........   0.00000E+00
 eroded hourglass energy........   0.00000E+00
 total energy...................   2.11000E+03
 total energy / initial energy..   1.16111E+00
 energy ratio w/o eroded energy.   1.16111E+00
 global x velocity..............   7.32677E-12
 global y velocity..............   2.09154E-04
 global z velocity..............  -1.15785E-08
 time per zone cycle.(nanosec)..             0


 dt of cycle     208 is controlled by shell          24917 of part         4

 time...........................   5.29764E-04
 time step......................   2.55925E-06
 kinetic energy.................   3.49168E+01
 internal energy................   2.07583E+03
 spring and damper energy.......   1.00000E-20
 hourglass energy ..............   5.68373E-02
 system damping energy..........   0.00000E+00
 sliding interface energy.......   0.00000E+00
 external work..................  -2.31551E+02
 eroded kinetic energy..........   0.00000E+00
 eroded internal energy.........   0.00000E+00
 eroded hourglass energy........   0.00000E+00
 total energy...................   2.11081E+03
 total energy / initial energy..   1.16568E+00
 energy ratio w/o eroded energy.   1.16568E+00
 global x velocity..............   8.31300E-12
 global y velocity..............   2.13013E-04
 global z velocity..............  -1.15234E-08
 time per zone cycle.(nanosec)..             0


 dt of cycle     211 is controlled by shell          24917 of part         4

 time...........................   5.37442E-04
 time step......................   2.55925E-06
 kinetic energy.................   3.55278E+01
 internal energy................   2.07590E+03
 spring and damper energy.......   1.00000E-20
 hourglass energy ..............   5.71076E-02
 system damping energy..........   0.00000E+00
 sliding interface energy.......   0.00000E+00
 external work..................  -2.36371E+02
 eroded kinetic energy..........   0.00000E+00
 eroded internal energy.........   0.00000E+00
 eroded hourglass energy........   0.00000E+00
 total energy...................   2.11149E+03
 total energy / initial energy..   1.16917E+00
 energy ratio w/o eroded energy.   1.16917E+00
 global x velocity..............   9.10678E-12
 global y velocity..............   2.15906E-04
 global z velocity..............  -1.14650E-08
 time per zone cycle.(nanosec)..             0


 dt of cycle     215 is controlled by shell          24917 of part         4

 time...........................   5.47678E-04
 time step......................   2.55925E-06
 kinetic energy.................   3.63426E+01
 internal energy................   2.07610E+03
 spring and damper energy.......   1.00000E-20
 hourglass energy ..............   5.74627E-02
 system damping energy..........   0.00000E+00
 sliding interface energy.......   0.00000E+00
 external work..................  -2.42798E+02
 eroded kinetic energy..........   0.00000E+00
 eroded internal energy.........   0.00000E+00
 eroded hourglass energy........   0.00000E+00
 total energy...................   2.11250E+03
 total energy / initial energy..   1.17391E+00
 energy ratio w/o eroded energy.   1.17391E+00
 global x velocity..............   1.02197E-11
 global y velocity..............   2.19757E-04
 global z velocity..............  -1.13655E-08
 time per zone cycle.(nanosec)..             0


 dt of cycle     219 is controlled by shell          24917 of part         4

 time...........................   5.57915E-04
 time step......................   2.55925E-06
 kinetic energy.................   3.71573E+01
 internal energy................   2.07640E+03
 spring and damper energy.......   1.00000E-20
 hourglass energy ..............   5.78121E-02
 system damping energy..........   0.00000E+00
 sliding interface energy.......   0.00000E+00
 external work..................  -2.49224E+02
 eroded kinetic energy..........   0.00000E+00
 eroded internal energy.........   0.00000E+00
 eroded hourglass energy........   0.00000E+00
 total energy...................   2.11362E+03
 total energy / initial energy..   1.17874E+00
 energy ratio w/o eroded energy.   1.17874E+00
 global x velocity..............   1.13724E-11
 global y velocity..............   2.23603E-04
 global z velocity..............  -1.12430E-08
 time per zone cycle.(nanosec)..             0


 dt of cycle     223 is controlled by shell          24917 of part         4

 time...........................   5.68152E-04
 time step......................   2.55925E-06
 kinetic energy.................   3.79716E+01
 internal energy................   2.07680E+03
 spring and damper energy.......   1.00000E-20
 hourglass energy ..............   5.81561E-02
 system damping energy..........   0.00000E+00
 sliding interface energy.......   0.00000E+00
 external work..................  -2.55653E+02
 eroded kinetic energy..........   0.00000E+00
 eroded internal energy.........   0.00000E+00
 eroded hourglass energy........   0.00000E+00
 total energy...................   2.11483E+03
 total energy / initial energy..   1.18365E+00
 energy ratio w/o eroded energy.   1.18365E+00
 global x velocity..............   1.25432E-11
 global y velocity..............   2.27443E-04
 global z velocity..............  -1.10981E-08
 time per zone cycle.(nanosec)..             0


 dt of cycle     227 is controlled by shell          24917 of part         4

 time...........................   5.78389E-04
 time step......................   2.55925E-06
 kinetic energy.................   3.87854E+01
 internal energy................   2.07726E+03
 spring and damper energy.......   1.00000E-20
 hourglass energy ..............   5.84949E-02
 system damping energy..........   0.00000E+00
 sliding interface energy.......   1.01918E-04
 external work..................  -2.62090E+02
 eroded kinetic energy..........   0.00000E+00
 eroded internal energy.........   0.00000E+00
 eroded hourglass energy........   0.00000E+00
 total energy...................   2.11611E+03
 total energy / initial energy..   1.18865E+00
 energy ratio w/o eroded energy.   1.18865E+00
 global x velocity..............   1.31967E-11
 global y velocity..............   2.31277E-04
 global z velocity..............  -1.09264E-08
 time per zone cycle.(nanosec)..             0


 dt of cycle     231 is controlled by shell          24917 of part         4

 time...........................   5.88626E-04
 time step......................   2.55925E-06
 kinetic energy.................   3.95981E+01
 internal energy................   2.07776E+03
 spring and damper energy.......   1.00000E-20
 hourglass energy ..............   5.88291E-02
 system damping energy..........   0.00000E+00
 sliding interface energy.......   7.21170E-04
 external work..................  -2.68545E+02
 eroded kinetic energy..........   0.00000E+00
 eroded internal energy.........   0.00000E+00
 eroded hourglass energy........   0.00000E+00
 total energy...................   2.11741E+03
 total energy / initial energy..   1.19372E+00
 energy ratio w/o eroded energy.   1.19372E+00
 global x velocity..............   1.06487E-11
 global y velocity..............   2.35105E-04
 global z velocity..............  -1.06717E-08
 time per zone cycle.(nanosec)..             0


 dt of cycle     235 is controlled by shell          24917 of part         4

 time...........................   5.98863E-04
 time step......................   2.55925E-06
 kinetic energy.................   4.04093E+01
 internal energy................   2.07821E+03
 spring and damper energy.......   1.00000E-20
 hourglass energy ..............   5.91615E-02
 system damping energy..........   0.00000E+00
 sliding interface energy.......   2.39645E-03
 external work..................  -2.75036E+02
 eroded kinetic energy..........   0.00000E+00
 eroded internal energy.........   0.00000E+00
 eroded hourglass energy........   0.00000E+00
 total energy...................   2.11868E+03
 total energy / initial energy..   1.19882E+00
 energy ratio w/o eroded energy.   1.19882E+00
 global x velocity..............  -5.66668E-15
 global y velocity..............   2.38926E-04
 global z velocity..............  -1.02412E-08
 time per zone cycle.(nanosec)..             0


 dt of cycle     239 is controlled by shell          24917 of part         4

 time...........................   6.09100E-04
 time step......................   2.55925E-06
 kinetic energy.................   4.12185E+01
 internal energy................   2.07854E+03
 spring and damper energy.......   1.00000E-20
 hourglass energy ..............   5.95006E-02
 system damping energy..........   0.00000E+00
 sliding interface energy.......   5.29528E-03
 external work..................  -2.81588E+02
 eroded kinetic energy..........   0.00000E+00
 eroded internal energy.........   0.00000E+00
 eroded hourglass energy........   0.00000E+00
 total energy...................   2.11982E+03
 total energy / initial energy..   1.20392E+00
 energy ratio w/o eroded energy.   1.20392E+00
 global x velocity..............  -2.25725E-11
 global y velocity..............   2.42737E-04
 global z velocity..............  -9.56869E-09
 time per zone cycle.(nanosec)..             0


 dt of cycle     243 is controlled by shell          24917 of part         4

 time...........................   6.19337E-04
 time step......................   2.55924E-06
 kinetic energy.................   4.20246E+01
 internal energy................   2.07863E+03
 spring and damper energy.......   1.00000E-20
 hourglass energy ..............   5.98675E-02
 system damping energy..........   0.00000E+00
 sliding interface energy.......   1.31966E-02
 external work..................  -2.88227E+02
 eroded kinetic energy..........   0.00000E+00
 eroded internal energy.........   0.00000E+00
 eroded hourglass energy........   0.00000E+00
 total energy...................   2.12073E+03
 total energy / initial energy..   1.20900E+00
 energy ratio w/o eroded energy.   1.20900E+00
 global x velocity..............  -5.63427E-11
 global y velocity..............   2.46533E-04
 global z velocity..............  -8.64309E-09
 time per zone cycle.(nanosec)..             0


 dt of cycle     247 is controlled by shell          24917 of part         4

 time...........................   6.29574E-04
 time step......................   2.55924E-06
 kinetic energy.................   4.28032E+01
 internal energy................   2.07843E+03
 spring and damper energy.......   1.00000E-20
 hourglass energy ..............   6.03028E-02
 system damping energy..........   0.00000E+00
 sliding interface energy.......   4.35927E-02
 external work..................  -2.94971E+02
 eroded kinetic energy..........   0.00000E+00
 eroded internal energy.........   0.00000E+00
 eroded hourglass energy........   0.00000E+00
 total energy...................   2.12134E+03
 total energy / initial energy..   1.21401E+00
 energy ratio w/o eroded energy.   1.21401E+00
 global x velocity..............  -1.05238E-10
 global y velocity..............   2.50309E-04
 global z velocity..............  -7.52363E-09
 time per zone cycle.(nanosec)..             0


 dt of cycle     251 is controlled by shell          24917 of part         4

 time...........................   6.39811E-04
 time step......................   2.55923E-06
 kinetic energy.................   4.35187E+01
 internal energy................   2.07796E+03
 spring and damper energy.......   1.00000E-20
 hourglass energy ..............   6.09879E-02
 system damping energy..........   0.00000E+00
 sliding interface energy.......   1.33376E-01
 external work..................  -3.01812E+02
 eroded kinetic energy..........   0.00000E+00
 eroded internal energy.........   0.00000E+00
 eroded hourglass energy........   0.00000E+00
 total energy...................   2.12167E+03
 total energy / initial energy..   1.21898E+00
 energy ratio w/o eroded energy.   1.21898E+00
 global x velocity..............  -1.68977E-10
 global y velocity..............   2.54061E-04
 global z velocity..............  -6.37093E-09
 time per zone cycle.(nanosec)..             0


 dt of cycle     254 is controlled by shell          24917 of part         4

 time...........................   6.47489E-04
 time step......................   2.55923E-06
 kinetic energy.................   4.39832E+01
 internal energy................   2.07752E+03
 spring and damper energy.......   1.00000E-20
 hourglass energy ..............   6.24914E-02
 system damping energy..........   0.00000E+00
 sliding interface energy.......   2.44350E-01
 external work..................  -3.06988E+02
 eroded kinetic energy..........   0.00000E+00
 eroded internal energy.........   0.00000E+00
 eroded hourglass energy........   0.00000E+00
 total energy...................   2.12181E+03
 total energy / initial energy..   1.22269E+00
 energy ratio w/o eroded energy.   1.22269E+00
 global x velocity..............  -2.36560E-10
 global y velocity..............   2.56863E-04
 global z velocity..............  -5.53425E-09
 time per zone cycle.(nanosec)..             0


 dt of cycle     258 is controlled by shell          24917 of part         4

 time...........................   6.57726E-04
 time step......................   2.55922E-06
 kinetic energy.................   4.44997E+01
 internal energy................   2.07700E+03
 spring and damper energy.......   1.00000E-20
 hourglass energy ..............   6.72592E-02
 system damping energy..........   0.00000E+00
 sliding interface energy.......   4.19328E-01
 external work..................  -3.13901E+02
 eroded kinetic energy..........   0.00000E+00
 eroded internal energy.........   0.00000E+00
 eroded hourglass energy........   0.00000E+00
 total energy...................   2.12199E+03
 total energy / initial energy..   1.22769E+00
 energy ratio w/o eroded energy.   1.22769E+00
 global x velocity..............  -4.06702E-10
 global y velocity..............   2.60594E-04
 global z velocity..............  -3.82229E-09
 time per zone cycle.(nanosec)..             0


 dt of cycle     262 is controlled by shell          24917 of part         4

 time...........................   6.67963E-04
 time step......................   2.55922E-06
 kinetic energy.................   4.49268E+01
 internal energy................   2.07681E+03
 spring and damper energy.......   1.00000E-20
 hourglass energy ..............   7.41364E-02
 system damping energy..........   0.00000E+00
 sliding interface energy.......   6.16278E-01
 external work..................  -3.20760E+02
 eroded kinetic energy..........   0.00000E+00
 eroded internal energy.........   0.00000E+00
 eroded hourglass energy........   0.00000E+00
 total energy...................   2.12243E+03
 total energy / initial energy..   1.23284E+00
 energy ratio w/o eroded energy.   1.23284E+00
 global x velocity..............  -6.76029E-10
 global y velocity..............   2.64333E-04
 global z velocity..............  -6.55030E-10
 time per zone cycle.(nanosec)..             0


 dt of cycle     266 is controlled by shell          24917 of part         4

 time...........................   6.78200E-04
 time step......................   2.55923E-06
 kinetic energy.................   4.53596E+01
 internal energy................   2.07717E+03
 spring and damper energy.......   1.00000E-20
 hourglass energy ..............   8.06464E-02
 system damping energy..........   0.00000E+00
 sliding interface energy.......   8.57450E-01
 external work..................  -3.27489E+02
 eroded kinetic energy..........   0.00000E+00
 eroded internal energy.........   0.00000E+00
 eroded hourglass energy........   0.00000E+00
 total energy...................   2.12347E+03
 total energy / initial energy..   1.23828E+00
 energy ratio w/o eroded energy.   1.23828E+00
 global x velocity..............  -9.17845E-10
 global y velocity..............   2.68084E-04
 global z velocity..............   3.12062E-09
 time per zone cycle.(nanosec)..         43654


 dt of cycle     270 is controlled by shell          24917 of part         4

 time...........................   6.88437E-04
 time step......................   2.55924E-06
 kinetic energy.................   4.58001E+01
 internal energy................   2.07824E+03
 spring and damper energy.......   1.00000E-20
 hourglass energy ..............   8.75537E-02
 system damping energy..........   0.00000E+00
 sliding interface energy.......   1.11838E+00
 external work..................  -3.34026E+02
 eroded kinetic energy..........   0.00000E+00
 eroded internal energy.........   0.00000E+00
 eroded hourglass energy........   0.00000E+00
 total energy...................   2.12525E+03
 total energy / initial energy..   1.24406E+00
 energy ratio w/o eroded energy.   1.24406E+00
 global x velocity..............  -1.04891E-09
 global y velocity..............   2.71852E-04
 global z velocity..............   6.90144E-09
 time per zone cycle.(nanosec)..             0


 dt of cycle     274 is controlled by shell          24917 of part         4

 time...........................   6.98674E-04
 time step......................   2.55924E-06
 kinetic energy.................   4.62792E+01
 internal energy................   2.08012E+03
 spring and damper energy.......   1.00000E-20
 hourglass energy ..............   9.51434E-02
 system damping energy..........   0.00000E+00
 sliding interface energy.......   1.35860E+00
 external work..................  -3.40339E+02
 eroded kinetic energy..........   0.00000E+00
 eroded internal energy.........   0.00000E+00
 eroded hourglass energy........   0.00000E+00
 total energy...................   2.12786E+03
 total energy / initial energy..   1.25020E+00
 energy ratio w/o eroded energy.   1.25020E+00
 global x velocity..............  -1.05531E-09
 global y velocity..............   2.75628E-04
 global z velocity..............   1.00218E-08
 time per zone cycle.(nanosec)..             0


 dt of cycle     278 is controlled by shell          24917 of part         4

 time...........................   7.08911E-04
 time step......................   2.55925E-06
 kinetic energy.................   4.68155E+01
 internal energy................   2.08279E+03
 spring and damper energy.......   1.00000E-20
 hourglass energy ..............   1.03454E-01
 system damping energy..........   0.00000E+00
 sliding interface energy.......   1.56248E+00
 external work..................  -3.46431E+02
 eroded kinetic energy..........   0.00000E+00
 eroded internal energy.........   0.00000E+00
 eroded hourglass energy........   0.00000E+00
 total energy...................   2.13127E+03
 total energy / initial energy..   1.25671E+00
 energy ratio w/o eroded energy.   1.25671E+00
 global x velocity..............  -1.05534E-09
 global y velocity..............   2.79402E-04
 global z velocity..............   1.17952E-08
 time per zone cycle.(nanosec)..             0


 dt of cycle     282 is controlled by shell          24917 of part         4

 time...........................   7.19147E-04
 time step......................   2.55884E-06
 kinetic energy.................   4.73861E+01
 internal energy................   2.08610E+03
 spring and damper energy.......   1.00000E-20
 hourglass energy ..............   1.12700E-01
 system damping energy..........   0.00000E+00
 sliding interface energy.......   1.72602E+00
 external work..................  -3.52342E+02
 eroded kinetic energy..........   0.00000E+00
 eroded internal energy.........   0.00000E+00
 eroded hourglass energy........   0.00000E+00
 total energy...................   2.13532E+03
 total energy / initial energy..   1.26350E+00
 energy ratio w/o eroded energy.   1.26350E+00
 global x velocity..............  -1.07798E-09
 global y velocity..............   2.83168E-04
 global z velocity..............   1.21053E-08
 time per zone cycle.(nanosec)..             0


 dt of cycle     286 is controlled by shell          24917 of part         4

 time...........................   7.29382E-04
 time step......................   2.55825E-06
 kinetic energy.................   4.79632E+01
 internal energy................   2.08981E+03
 spring and damper energy.......   1.00000E-20
 hourglass energy ..............   1.23073E-01
 system damping energy..........   0.00000E+00
 sliding interface energy.......   1.87125E+00
 external work..................  -3.58147E+02
 eroded kinetic energy..........   0.00000E+00
 eroded internal energy.........   0.00000E+00
 eroded hourglass energy........   0.00000E+00
 total energy...................   2.13977E+03
 total energy / initial energy..   1.27049E+00
 energy ratio w/o eroded energy.   1.27049E+00
 global x velocity..............  -1.08813E-09
 global y velocity..............   2.86921E-04
 global z velocity..............   1.14026E-08
 time per zone cycle.(nanosec)..             0


 dt of cycle     290 is controlled by shell          24917 of part         4

 time...........................   7.39614E-04
 time step......................   2.55744E-06
 kinetic energy.................   4.85352E+01
 internal energy................   2.09363E+03
 spring and damper energy.......   1.00000E-20
 hourglass energy ..............   1.34273E-01
 system damping energy..........   0.00000E+00
 sliding interface energy.......   2.07304E+00
 external work..................  -3.63935E+02
 eroded kinetic energy..........   0.00000E+00
 eroded internal energy.........   0.00000E+00
 eroded hourglass energy........   0.00000E+00
 total energy...................   2.14437E+03
 total energy / initial energy..   1.27762E+00
 energy ratio w/o eroded energy.   1.27762E+00
 global x velocity..............  -1.32300E-09
 global y velocity..............   2.90659E-04
 global z velocity..............   9.63148E-09
 time per zone cycle.(nanosec)..             0


 dt of cycle     294 is controlled by shell          24917 of part         4

 time...........................   7.49841E-04
 time step......................   2.55615E-06
 kinetic energy.................   4.90901E+01
 internal energy................   2.09730E+03
 spring and damper energy.......   1.00000E-20
 hourglass energy ..............   1.45884E-01
 system damping energy..........   0.00000E+00
 sliding interface energy.......   2.32080E+00
 external work..................  -3.69779E+02
 eroded kinetic energy..........   0.00000E+00
 eroded internal energy.........   0.00000E+00
 eroded hourglass energy........   0.00000E+00
 total energy...................   2.14885E+03
 total energy / initial energy..   1.28476E+00
 energy ratio w/o eroded energy.   1.28476E+00
 global x velocity..............  -2.09219E-09
 global y velocity..............   2.94376E-04
 global z velocity..............   6.88214E-09
 time per zone cycle.(nanosec)..             0


 dt of cycle     297 is controlled by shell          24917 of part         4

 time...........................   7.57509E-04
 time step......................   2.55600E-06
 kinetic energy.................   4.94990E+01
 internal energy................   2.09985E+03
 spring and damper energy.......   1.00000E-20
 hourglass energy ..............   1.54616E-01
 system damping energy..........   0.00000E+00
 sliding interface energy.......   2.49757E+00
 external work..................  -3.74232E+02
 eroded kinetic energy..........   0.00000E+00
 eroded internal energy.........   0.00000E+00
 eroded hourglass energy........   0.00000E+00
 total energy...................   2.15200E+03
 total energy / initial energy..   1.29008E+00
 energy ratio w/o eroded energy.   1.29008E+00
 global x velocity..............  -2.97589E-09
 global y velocity..............   2.97151E-04
 global z velocity..............   7.72055E-09
 time per zone cycle.(nanosec)..             0


 dt of cycle     301 is controlled by shell          24917 of part         4

 time...........................   7.67733E-04
 time step......................   2.55573E-06
 kinetic energy.................   5.00383E+01
 internal energy................   2.10288E+03
 spring and damper energy.......   1.00000E-20
 hourglass energy ..............   1.66286E-01
 system damping energy..........   0.00000E+00
 sliding interface energy.......   2.76923E+00
 external work..................  -3.80289E+02
 eroded kinetic energy..........   0.00000E+00
 eroded internal energy.........   0.00000E+00
 eroded hourglass energy........   0.00000E+00
 total energy...................   2.15586E+03
 total energy / initial energy..   1.29710E+00
 energy ratio w/o eroded energy.   1.29710E+00
 global x velocity..............  -4.25454E-09
 global y velocity..............   3.00832E-04
 global z velocity..............   9.04287E-09
 time per zone cycle.(nanosec)..             0


 dt of cycle     305 is controlled by shell          24917 of part         4

 time...........................   7.77956E-04
 time step......................   2.55577E-06
 kinetic energy.................   5.05606E+01
 internal energy................   2.10541E+03
 spring and damper energy.......   1.00000E-20
 hourglass energy ..............   1.77610E-01
 system damping energy..........   0.00000E+00
 sliding interface energy.......   3.03921E+00
 external work..................  -3.86506E+02
 eroded kinetic energy..........   0.00000E+00
 eroded internal energy.........   0.00000E+00
 eroded hourglass energy........   0.00000E+00
 total energy...................   2.15918E+03
 total energy / initial energy..   1.30398E+00
 energy ratio w/o eroded energy.   1.30398E+00
 global x velocity..............  -5.26196E-09
 global y velocity..............   3.04490E-04
 global z velocity..............   1.21391E-08
 time per zone cycle.(nanosec)..             0


 dt of cycle     309 is controlled by shell          24917 of part         4

 time...........................   7.88179E-04
 time step......................   2.55516E-06
 kinetic energy.................   5.10798E+01
 internal energy................   2.10733E+03
 spring and damper energy.......   1.00000E-20
 hourglass energy ..............   1.88327E-01
 system damping energy..........   0.00000E+00
 sliding interface energy.......   3.34237E+00
 external work..................  -3.92905E+02
 eroded kinetic energy..........   0.00000E+00
 eroded internal energy.........   0.00000E+00
 eroded hourglass energy........   0.00000E+00
 total energy...................   2.16194E+03
 total energy / initial energy..   1.31071E+00
 energy ratio w/o eroded energy.   1.31071E+00
 global x velocity..............  -5.54842E-09
 global y velocity..............   3.08121E-04
 global z velocity..............   1.66068E-08
 time per zone cycle.(nanosec)..             0


 dt of cycle     313 is controlled by shell          24917 of part         4

 time...........................   7.98397E-04
 time step......................   2.55341E-06
 kinetic energy.................   5.16116E+01
 internal energy................   2.10860E+03
 spring and damper energy.......   1.00000E-20
 hourglass energy ..............   1.98736E-01
 system damping energy..........   0.00000E+00
 sliding interface energy.......   3.66418E+00
 external work..................  -3.99493E+02
 eroded kinetic energy..........   0.00000E+00
 eroded internal energy.........   0.00000E+00
 eroded hourglass energy........   0.00000E+00
 total energy...................   2.16407E+03
 total energy / initial energy..   1.31726E+00
 energy ratio w/o eroded energy.   1.31726E+00
 global x velocity..............  -4.76139E-09
 global y velocity..............   3.11716E-04
 global z velocity..............   2.15590E-08
 time per zone cycle.(nanosec)..             0


 dt of cycle     317 is controlled by shell          24917 of part         4

 time...........................   8.08609E-04
 time step......................   2.55319E-06
 kinetic energy.................   5.21544E+01
 internal energy................   2.10917E+03
 spring and damper energy.......   1.00000E-20
 hourglass energy ..............   2.09069E-01
 system damping energy..........   0.00000E+00
 sliding interface energy.......   4.00904E+00
 external work..................  -4.06278E+02
 eroded kinetic energy..........   0.00000E+00
 eroded internal energy.........   0.00000E+00
 eroded hourglass energy........   0.00000E+00
 total energy...................   2.16555E+03
 total energy / initial energy..   1.32363E+00
 energy ratio w/o eroded energy.   1.32363E+00
 global x velocity..............  -2.66653E-09
 global y velocity..............   3.15279E-04
 global z velocity..............   2.56794E-08
 time per zone cycle.(nanosec)..             0


[...]
 external work..................  -1.23039E+04
 eroded kinetic energy..........   0.00000E+00
 eroded internal energy.........   0.00000E+00
 eroded hourglass energy........   0.00000E+00
 total energy...................   2.22861E+03
 total energy / initial energy..   1.00000E+00
 energy ratio w/o eroded energy.   1.00000E+00
 global x velocity..............   2.77002E-06
 global y velocity..............   9.34601E-04
 global z velocity..............   1.17574E-06
 time per zone cycle.(nanosec)..             0


 dt of cycle    5814 is controlled by shell          24917 of part         4

 time...........................   1.48081E-02
 time step......................   2.55206E-06
 kinetic energy.................   1.34427E+02
 internal energy................   2.04374E+03
 spring and damper energy.......   1.00000E-20
 hourglass energy ..............   4.53194E+00
 system damping energy..........   0.00000E+00
 sliding interface energy.......   4.58670E+01
 external work..................  -1.23141E+04
 eroded kinetic energy..........   0.00000E+00
 eroded internal energy.........   0.00000E+00
 eroded hourglass energy........   0.00000E+00
 total energy...................   2.22857E+03
 total energy / initial energy..   1.00000E+00
 energy ratio w/o eroded energy.   1.00000E+00
 global x velocity..............   2.77002E-06
 global y velocity..............   9.34492E-04
 global z velocity..............   1.17574E-06
 time per zone cycle.(nanosec)..             0


 dt of cycle    5818 is controlled by shell          24917 of part         4

 time...........................   1.48183E-02
 time step......................   2.55080E-06
 kinetic energy.................   1.34391E+02
 internal energy................   2.04373E+03
 spring and damper energy.......   1.00000E-20
 hourglass energy ..............   4.53211E+00
 system damping energy..........   0.00000E+00
 sliding interface energy.......   4.58670E+01
 external work..................  -1.23243E+04
 eroded kinetic energy..........   0.00000E+00
 eroded internal energy.........   0.00000E+00
 eroded hourglass energy........   0.00000E+00
 total energy...................   2.22852E+03
 total energy / initial energy..   1.00000E+00
 energy ratio w/o eroded energy.   1.00000E+00
 global x velocity..............   2.77002E-06
 global y velocity..............   9.34382E-04
 global z velocity..............   1.17575E-06
 time per zone cycle.(nanosec)..             0


 dt of cycle    5822 is controlled by shell          24917 of part         4

 time...........................   1.48285E-02
 time step......................   2.55082E-06
 kinetic energy.................   1.34354E+02
 internal energy................   2.04373E+03
 spring and damper energy.......   1.00000E-20
 hourglass energy ..............   4.53229E+00
 system damping energy..........   0.00000E+00
 sliding interface energy.......   4.58670E+01
 external work..................  -1.23345E+04
 eroded kinetic energy..........   0.00000E+00
 eroded internal energy.........   0.00000E+00
 eroded hourglass energy........   0.00000E+00
 total energy...................   2.22848E+03
 total energy / initial energy..   1.00000E+00
 energy ratio w/o eroded energy.   1.00000E+00
 global x velocity..............   2.77002E-06
 global y velocity..............   9.34274E-04
 global z velocity..............   1.17575E-06
 time per zone cycle.(nanosec)..             0


 dt of cycle    5826 is controlled by shell          24917 of part         4

 time...........................   1.48388E-02
 time step......................   2.55224E-06
 kinetic energy.................   1.34317E+02
 internal energy................   2.04373E+03
 spring and damper energy.......   1.00000E-20
 hourglass energy ..............   4.53246E+00
 system damping energy..........   0.00000E+00
 sliding interface energy.......   4.58670E+01
 external work..................  -1.23447E+04
 eroded kinetic energy..........   0.00000E+00
 eroded internal energy.........   0.00000E+00
 eroded hourglass energy........   0.00000E+00
 total energy...................   2.22844E+03
 total energy / initial energy..   1.00000E+00
 energy ratio w/o eroded energy.   1.00000E+00
 global x velocity..............   2.77002E-06
 global y velocity..............   9.34165E-04
 global z velocity..............   1.17575E-06
 time per zone cycle.(nanosec)..             0


 dt of cycle    5830 is controlled by shell          24917 of part         4

 time...........................   1.48490E-02
 time step......................   2.55193E-06
 kinetic energy.................   1.34281E+02
 internal energy................   2.04373E+03
 spring and damper energy.......   1.00000E-20
 hourglass energy ..............   4.53263E+00
 system damping energy..........   0.00000E+00
 sliding interface energy.......   4.58670E+01
 external work..................  -1.23548E+04
 eroded kinetic energy..........   0.00000E+00
 eroded internal energy.........   0.00000E+00
 eroded hourglass energy........   0.00000E+00
 total energy...................   2.22841E+03
 total energy / initial energy..   1.00000E+00
 energy ratio w/o eroded energy.   1.00000E+00
 global x velocity..............   2.77002E-06
 global y velocity..............   9.34056E-04
 global z velocity..............   1.17575E-06
 time per zone cycle.(nanosec)..             0


 dt of cycle    5834 is controlled by shell          24917 of part         4

 time...........................   1.48592E-02
 time step......................   2.55189E-06
 kinetic energy.................   1.34244E+02
 internal energy................   2.04372E+03
 spring and damper energy.......   1.00000E-20
 hourglass energy ..............   4.53281E+00
 system damping energy..........   0.00000E+00
 sliding interface energy.......   4.58670E+01
 external work..................  -1.23650E+04
 eroded kinetic energy..........   0.00000E+00
 eroded internal energy.........   0.00000E+00
 eroded hourglass energy........   0.00000E+00
 total energy...................   2.22837E+03
 total energy / initial energy..   1.00000E+00
 energy ratio w/o eroded energy.   1.00000E+00
 global x velocity..............   2.77002E-06
 global y velocity..............   9.33948E-04
 global z velocity..............   1.17575E-06
 time per zone cycle.(nanosec)..             0


 dt of cycle    5838 is controlled by shell          24917 of part         4

 time...........................   1.48694E-02
 time step......................   2.55071E-06
 kinetic energy.................   1.34208E+02
 internal energy................   2.04372E+03
 spring and damper energy.......   1.00000E-20
 hourglass energy ..............   4.53298E+00
 system damping energy..........   0.00000E+00
 sliding interface energy.......   4.58670E+01
 external work..................  -1.23752E+04
 eroded kinetic energy..........   0.00000E+00
 eroded internal energy.........   0.00000E+00
 eroded hourglass energy........   0.00000E+00
 total energy...................   2.22833E+03
 total energy / initial energy..   1.00000E+00
 energy ratio w/o eroded energy.   1.00000E+00
 global x velocity..............   2.77002E-06
 global y velocity..............   9.33840E-04
 global z velocity..............   1.17575E-06
 time per zone cycle.(nanosec)..             0


 dt of cycle    5842 is controlled by shell          24917 of part         4

 time...........................   1.48796E-02
 time step......................   2.55003E-06
 kinetic energy.................   1.34172E+02
 internal energy................   2.04372E+03
 spring and damper energy.......   1.00000E-20
 hourglass energy ..............   4.53315E+00
 system damping energy..........   0.00000E+00
 sliding interface energy.......   4.58670E+01
 external work..................  -1.23854E+04
 eroded kinetic energy..........   0.00000E+00
 eroded internal energy.........   0.00000E+00
 eroded hourglass energy........   0.00000E+00
 total energy...................   2.22830E+03
 total energy / initial energy..   1.00000E+00
 energy ratio w/o eroded energy.   1.00000E+00
 global x velocity..............   2.77002E-06
 global y velocity..............   9.33733E-04
 global z velocity..............   1.17575E-06
 time per zone cycle.(nanosec)..             0


 dt of cycle    5846 is controlled by shell          24917 of part         4

 time...........................   1.48898E-02
 time step......................   2.55001E-06
 kinetic energy.................   1.34137E+02
 internal energy................   2.04372E+03
 spring and damper energy.......   1.00000E-20
 hourglass energy ..............   4.53333E+00
 system damping energy..........   0.00000E+00
 sliding interface energy.......   4.58670E+01
 external work..................  -1.23956E+04
 eroded kinetic energy..........   0.00000E+00
 eroded internal energy.........   0.00000E+00
 eroded hourglass energy........   0.00000E+00
 total energy...................   2.22826E+03
 total energy / initial energy..   1.00000E+00
 energy ratio w/o eroded energy.   1.00000E+00
 global x velocity..............   2.77002E-06
 global y velocity..............   9.33625E-04
 global z velocity..............   1.17575E-06
 time per zone cycle.(nanosec)..             0


 dt of cycle    5850 is controlled by shell          24917 of part         4

 time...........................   1.49000E-02
 time step......................   2.55070E-06
 kinetic energy.................   1.34101E+02
 internal energy................   2.04373E+03
 spring and damper energy.......   1.00000E-20
 hourglass energy ..............   4.53350E+00
 system damping energy..........   0.00000E+00
 sliding interface energy.......   4.58670E+01
 external work..................  -1.24058E+04
 eroded kinetic energy..........   0.00000E+00
 eroded internal energy.........   0.00000E+00
 eroded hourglass energy........   0.00000E+00
 total energy...................   2.22823E+03
 total energy / initial energy..   1.00000E+00
 energy ratio w/o eroded energy.   1.00000E+00
 global x velocity..............   2.77002E-06
 global y velocity..............   9.33518E-04
 global z velocity..............   1.17575E-06
 time per zone cycle.(nanosec)..             0


 dt of cycle    5853 is controlled by shell          24917 of part         4

 time...........................   1.49076E-02
 time step......................   2.55161E-06
 kinetic energy.................   1.34074E+02
 internal energy................   2.04373E+03
 spring and damper energy.......   1.00000E-20
 hourglass energy ..............   4.53363E+00
 system damping energy..........   0.00000E+00
 sliding interface energy.......   4.58670E+01
 external work..................  -1.24134E+04
 eroded kinetic energy..........   0.00000E+00
 eroded internal energy.........   0.00000E+00
 eroded hourglass energy........   0.00000E+00
 total energy...................   2.22820E+03
 total energy / initial energy..   1.00000E+00
 energy ratio w/o eroded energy.   1.00000E+00
 global x velocity..............   2.77002E-06
 global y velocity..............   9.33438E-04
 global z velocity..............   1.17576E-06
 time per zone cycle.(nanosec)..             0


 dt of cycle    5857 is controlled by shell          24917 of part         4

 time...........................   1.49178E-02
 time step......................   2.55168E-06
 kinetic energy.................   1.34038E+02
 internal energy................   2.04373E+03
 spring and damper energy.......   1.00000E-20
 hourglass energy ..............   4.53381E+00
 system damping energy..........   0.00000E+00
 sliding interface energy.......   4.58670E+01
 external work..................  -1.24236E+04
 eroded kinetic energy..........   0.00000E+00
 eroded internal energy.........   0.00000E+00
 eroded hourglass energy........   0.00000E+00
 total energy...................   2.22817E+03
 total energy / initial energy..   1.00000E+00
 energy ratio w/o eroded energy.   1.00000E+00
 global x velocity..............   2.77002E-06
 global y velocity..............   9.33331E-04
 global z velocity..............   1.17576E-06
 time per zone cycle.(nanosec)..             0


 dt of cycle    5861 is controlled by shell          24917 of part         4

 time...........................   1.49280E-02
 time step......................   2.55207E-06
 kinetic energy.................   1.34001E+02
 internal energy................   2.04374E+03
 spring and damper energy.......   1.00000E-20
 hourglass energy ..............   4.53398E+00
 system damping energy..........   0.00000E+00
 sliding interface energy.......   4.58670E+01
 external work..................  -1.24338E+04
 eroded kinetic energy..........   0.00000E+00
 eroded internal energy.........   0.00000E+00
 eroded hourglass energy........   0.00000E+00
 total energy...................   2.22814E+03
 total energy / initial energy..   1.00000E+00
 energy ratio w/o eroded energy.   1.00000E+00
 global x velocity..............   2.77002E-06
 global y velocity..............   9.33224E-04
 global z velocity..............   1.17576E-06
 time per zone cycle.(nanosec)..             0


 dt of cycle    5865 is controlled by shell          24917 of part         4

 time...........................   1.49383E-02
 time step......................   2.55308E-06
 kinetic energy.................   1.33965E+02
 internal energy................   2.04374E+03
 spring and damper energy.......   1.00000E-20
 hourglass energy ..............   4.53416E+00
 system damping energy..........   0.00000E+00
 sliding interface energy.......   4.58670E+01
 external work..................  -1.24440E+04
 eroded kinetic energy..........   0.00000E+00
 eroded internal energy.........   0.00000E+00
 eroded hourglass energy........   0.00000E+00
 total energy...................   2.22811E+03
 total energy / initial energy..   1.00000E+00
 energy ratio w/o eroded energy.   1.00000E+00
 global x velocity..............   2.77002E-06
 global y velocity..............   9.33118E-04
 global z velocity..............   1.17576E-06
 time per zone cycle.(nanosec)..             0


 dt of cycle    5869 is controlled by shell          24917 of part         4

 time...........................   1.49485E-02
 time step......................   2.55306E-06
 kinetic energy.................   1.33930E+02
 internal energy................   2.04375E+03
 spring and damper energy.......   1.00000E-20
 hourglass energy ..............   4.53433E+00
 system damping energy..........   0.00000E+00
 sliding interface energy.......   4.58670E+01
 external work..................  -1.24543E+04
 eroded kinetic energy..........   0.00000E+00
 eroded internal energy.........   0.00000E+00
 eroded hourglass energy........   0.00000E+00
 total energy...................   2.22808E+03
 total energy / initial energy..   1.00000E+00
 energy ratio w/o eroded energy.   1.00000E+00
 global x velocity..............   2.77002E-06
 global y velocity..............   9.33011E-04
 global z velocity..............   1.17576E-06
 time per zone cycle.(nanosec)..             0


 dt of cycle    5873 is controlled by shell          24917 of part         4

 time...........................   1.49587E-02
 time step......................   2.55324E-06
 kinetic energy.................   1.33894E+02
 internal energy................   2.04376E+03
 spring and damper energy.......   1.00000E-20
 hourglass energy ..............   4.53451E+00
 system damping energy..........   0.00000E+00
 sliding interface energy.......   4.58670E+01
 external work..................  -1.24645E+04
 eroded kinetic energy..........   0.00000E+00
 eroded internal energy.........   0.00000E+00
 eroded hourglass energy........   0.00000E+00
 total energy...................   2.22805E+03
 total energy / initial energy..   1.00000E+00
 energy ratio w/o eroded energy.   1.00000E+00
 global x velocity..............   2.77002E-06
 global y velocity..............   9.32904E-04
 global z velocity..............   1.17576E-06
 time per zone cycle.(nanosec)..             0


 dt of cycle    5877 is controlled by shell          24917 of part         4

 time...........................   1.49689E-02
 time step......................   2.55244E-06
 kinetic energy.................   1.33858E+02
 internal energy................   2.04376E+03
 spring and damper energy.......   1.00000E-20
 hourglass energy ..............   4.53468E+00
 system damping energy..........   0.00000E+00
 sliding interface energy.......   4.58670E+01
 external work..................  -1.24747E+04
 eroded kinetic energy..........   0.00000E+00
 eroded internal energy.........   0.00000E+00
 eroded hourglass energy........   0.00000E+00
 total energy...................   2.22802E+03
 total energy / initial energy..   1.00000E+00
 energy ratio w/o eroded energy.   1.00000E+00
 global x velocity..............   2.77002E-06
 global y velocity..............   9.32798E-04
 global z velocity..............   1.17577E-06
 time per zone cycle.(nanosec)..             0


 dt of cycle    5881 is controlled by shell          24917 of part         4

 time...........................   1.49791E-02
 time step......................   2.55255E-06
 kinetic energy.................   1.33822E+02
 internal energy................   2.04377E+03
 spring and damper energy.......   1.00000E-20
 hourglass energy ..............   4.53486E+00
 system damping energy..........   0.00000E+00
 sliding interface energy.......   4.58670E+01
 external work..................  -1.24849E+04
 eroded kinetic energy..........   0.00000E+00
 eroded internal energy.........   0.00000E+00
 eroded hourglass energy........   0.00000E+00
 total energy...................   2.22799E+03
 total energy / initial energy..   1.00000E+00
 energy ratio w/o eroded energy.   1.00000E+00
 global x velocity..............   2.77002E-06
 global y velocity..............   9.32692E-04
 global z velocity..............   1.17577E-06
 time per zone cycle.(nanosec)..             0


 dt of cycle    5885 is controlled by shell          24917 of part         4

 time...........................   1.49893E-02
 time step......................   2.55259E-06
 kinetic energy.................   1.33786E+02
 internal energy................   2.04378E+03
 spring and damper energy.......   1.00000E-20
 hourglass energy ..............   4.53503E+00
 system damping energy..........   0.00000E+00
 sliding interface energy.......   4.58670E+01
 external work..................  -1.24951E+04
 eroded kinetic energy..........   0.00000E+00
 eroded internal energy.........   0.00000E+00
 eroded hourglass energy........   0.00000E+00
 total energy...................   2.22797E+03
 total energy / initial energy..   1.00000E+00
 energy ratio w/o eroded energy.   1.00000E+00
 global x velocity..............   2.77002E-06
 global y velocity..............   9.32585E-04
 global z velocity..............   1.17577E-06
 time per zone cycle.(nanosec)..             0


 dt of cycle    5889 is controlled by shell          24917 of part         4

 time...........................   1.49995E-02
 time step......................   2.55216E-06
 kinetic energy.................   1.33750E+02
 internal energy................   2.04379E+03
 spring and damper energy.......   1.00000E-20
 hourglass energy ..............   4.53521E+00
 system damping energy..........   0.00000E+00
 sliding interface energy.......   4.58670E+01
 external work..................  -1.25053E+04
 eroded kinetic energy..........   0.00000E+00
 eroded internal energy.........   0.00000E+00
 eroded hourglass energy........   0.00000E+00
 total energy...................   2.22794E+03
 total energy / initial energy..   1.00000E+00
 energy ratio w/o eroded energy.   1.00000E+00
 global x velocity..............   2.77002E-06
 global y velocity..............   9.32479E-04
 global z velocity..............   1.17577E-06
 time per zone cycle.(nanosec)..             0
