 LS-DYNA keyword deck by LS-PrePost                                      
                    ls-dyna smp d R13 R13.1.1_27_8731a0 date 07/28/2023


      time   airbag/cv #  volume        pressure    internal energy      dm/dt in      density dm/dt out  total mass gas temp. surface area   reaction dm/dt outp dm/dt outv
 7.45720E-03       1     2.7269E+05     1.0131E-04     6.9134E+01     2.4857E-06     1.2251E-09  0.000E+00  3.341E-04  1.055E+03  4.240E+05  0.000E+00  0.000E+00  0.000E+00
    Material I.D.=           1  Unblocked  Area=  0.0000E+00    Blocked  Area=  0.0000E+00    Leakage      =  0.0000E+00
    Material I.D.=           2  Unblocked  Area=  0.0000E+00    Blocked  Area=  0.0000E+00    Leakage      =  0.0000E+00


      time   airbag/cv #  volume        pressure    internal energy      dm/dt in      density dm/dt out  total mass gas temp. surface area   reaction dm/dt outp dm/dt outv
 4.99632E-01       1     2.9842E+05     1.0150E-04     7.5798E+01     1.6654E-04     1.2609E-09  0.000E+00  3.763E-04  1.027E+03  4.240E+05  0.000E+00  0.000E+00  0.000E+00
    Material I.D.=           1  Unblocked  Area=  0.0000E+00    Blocked  Area=  0.0000E+00    Leakage      =  0.0000E+00
    Material I.D.=           2  Unblocked  Area=  0.0000E+00    Blocked  Area=  0.0000E+00    Leakage      =  0.0000E+00


      time   airbag/cv #  volume        pressure    internal energy      dm/dt in      density dm/dt out  total mass gas temp. surface area   reaction dm/dt outp dm/dt outv
 9.99265E-01       1     3.7593E+05     1.0150E-04     9.5492E+01     3.3309E-04     1.3346E-09  0.000E+00  5.017E-04  9.701E+02  4.240E+05  0.000E+00  0.000E+00  0.000E+00
    Material I.D.=           1  Unblocked  Area=  0.0000E+00    Blocked  Area=  0.0000E+00    Leakage      =  0.0000E+00
    Material I.D.=           2  Unblocked  Area=  0.0000E+00    Blocked  Area=  0.0000E+00    Leakage      =  0.0000E+00


      time   airbag/cv #  volume        pressure    internal energy      dm/dt in      density dm/dt out  total mass gas temp. surface area   reaction dm/dt outp dm/dt outv
 1.49890E+00       1     5.0496E+05     1.0148E-04     1.2824E+02     4.9963E-04     1.4068E-09  0.000E+00  7.104E-04  9.201E+02  4.240E+05  0.000E+00  0.000E+00  0.000E+00
    Material I.D.=           1  Unblocked  Area=  0.0000E+00    Blocked  Area=  0.0000E+00    Leakage      =  0.0000E+00
    Material I.D.=           2  Unblocked  Area=  0.0000E+00    Blocked  Area=  0.0000E+00    Leakage      =  0.0000E+00


      time   airbag/cv #  volume        pressure    internal energy      dm/dt in      density dm/dt out  total mass gas temp. surface area   reaction dm/dt outp dm/dt outv
 1.99853E+00       1     6.8588E+05     1.0138E-04     1.7401E+02     6.6618E-04     1.4612E-09  0.000E+00  1.002E-03  8.849E+02  4.240E+05  0.000E+00  0.000E+00  0.000E+00
    Material I.D.=           1  Unblocked  Area=  0.0000E+00    Blocked  Area=  0.0000E+00    Leakage      =  0.0000E+00
    Material I.D.=           2  Unblocked  Area=  0.0000E+00    Blocked  Area=  0.0000E+00    Leakage      =  0.0000E+00


      time   airbag/cv #  volume        pressure    internal energy      dm/dt in      density dm/dt out  total mass gas temp. surface area   reaction dm/dt outp dm/dt outv
 2.49816E+00       1     9.1738E+05     1.0146E-04     2.3293E+02     8.3272E-04     1.5013E-09  0.000E+00  1.377E-03  8.620E+02  4.239E+05  0.000E+00  0.000E+00  0.000E+00
    Material I.D.=           1  Unblocked  Area=  0.0000E+00    Blocked  Area=  0.0000E+00    Leakage      =  0.0000E+00
    Material I.D.=           2  Unblocked  Area=  0.0000E+00    Blocked  Area=  0.0000E+00    Leakage      =  0.0000E+00


      time   airbag/cv #  volume        pressure    internal energy      dm/dt in      density dm/dt out  total mass gas temp. surface area   reaction dm/dt outp dm/dt outv
 2.99779E+00       1     1.2009E+06     1.0143E-04     3.0484E+02     9.9926E-04     1.5285E-09  0.000E+00  1.836E-03  8.465E+02  4.239E+05  0.000E+00  0.000E+00  0.000E+00
    Material I.D.=           1  Unblocked  Area=  0.0000E+00    Blocked  Area=  0.0000E+00    Leakage      =  0.0000E+00
    Material I.D.=           2  Unblocked  Area=  0.0000E+00    Blocked  Area=  0.0000E+00    Leakage      =  0.0000E+00


      time   airbag/cv #  volume        pressure    internal energy      dm/dt in      density dm/dt out  total mass gas temp. surface area   reaction dm/dt outp dm/dt outv
 3.49743E+00       1     1.5359E+06     1.0142E-04     3.8983E+02     1.1658E-03     1.5477E-09  0.000E+00  2.377E-03  8.359E+02  4.238E+05  0.000E+00  0.000E+00  0.000E+00
    Material I.D.=           1  Unblocked  Area=  0.0000E+00    Blocked  Area=  0.0000E+00    Leakage      =  0.0000E+00
    Material I.D.=           2  Unblocked  Area=  0.0000E+00    Blocked  Area=  0.0000E+00    Leakage      =  0.0000E+00


      time   airbag/cv #  volume        pressure    internal energy      dm/dt in      density dm/dt out  total mass gas temp. surface area   reaction dm/dt outp dm/dt outv
 3.99706E+00       1     1.9221E+06     1.0143E-04     4.8789E+02     1.3324E-03     1.5617E-09  0.000E+00  3.002E-03  8.284E+02  4.237E+05  0.000E+00  0.000E+00  0.000E+00
    Material I.D.=           1  Unblocked  Area=  0.0000E+00    Blocked  Area=  0.0000E+00    Leakage      =  0.0000E+00
    Material I.D.=           2  Unblocked  Area=  0.0000E+00    Blocked  Area=  0.0000E+00    Leakage      =  0.0000E+00


      time   airbag/cv #  volume        pressure    internal energy      dm/dt in      density dm/dt out  total mass gas temp. surface area   reaction dm/dt outp dm/dt outv
 4.49669E+00       1     2.3596E+06     1.0144E-04     5.9902E+02     1.4989E-03     1.5721E-09  0.000E+00  3.710E-03  8.230E+02  4.236E+05  0.000E+00  0.000E+00  0.000E+00
    Material I.D.=           1  Unblocked  Area=  0.0000E+00    Blocked  Area=  0.0000E+00    Leakage      =  0.0000E+00
    Material I.D.=           2  Unblocked  Area=  0.0000E+00    Blocked  Area=  0.0000E+00    Leakage      =  0.0000E+00


      time   airbag/cv #  volume        pressure    internal energy      dm/dt in      density dm/dt out  total mass gas temp. surface area   reaction dm/dt outp dm/dt outv
 4.99632E+00       1     2.8489E+06     1.0144E-04     7.2319E+02     1.6654E-03     1.5798E-09  0.000E+00  4.501E-03  8.190E+02  4.235E+05  0.000E+00  0.000E+00  0.000E+00
    Material I.D.=           1  Unblocked  Area=  0.0000E+00    Blocked  Area=  0.0000E+00    Leakage      =  0.0000E+00
    Material I.D.=           2  Unblocked  Area=  0.0000E+00    Blocked  Area=  0.0000E+00    Leakage      =  0.0000E+00


      time   airbag/cv #  volume        pressure    internal energy      dm/dt in      density dm/dt out  total mass gas temp. surface area   reaction dm/dt outp dm/dt outv
 5.49596E+00       1     3.3898E+06     1.0143E-04     8.6040E+02     1.8320E-03     1.5857E-09  0.000E+00  5.375E-03  8.159E+02  4.234E+05  0.000E+00  0.000E+00  0.000E+00
    Material I.D.=           1  Unblocked  Area=  0.0000E+00    Blocked  Area=  0.0000E+00    Leakage      =  0.0000E+00
    Material I.D.=           2  Unblocked  Area=  0.0000E+00    Blocked  Area=  0.0000E+00    Leakage      =  0.0000E+00


      time   airbag/cv #  volume        pressure    internal energy      dm/dt in      density dm/dt out  total mass gas temp. surface area   reaction dm/dt outp dm/dt outv
 5.99559E+00       1     3.9814E+06     1.0144E-04     1.0107E+03     1.9985E-03     1.5906E-09  0.000E+00  6.333E-03  8.135E+02  4.232E+05  0.000E+00  0.000E+00  0.000E+00
    Material I.D.=           1  Unblocked  Area=  0.0000E+00    Blocked  Area=  0.0000E+00    Leakage      =  0.0000E+00
    Material I.D.=           2  Unblocked  Area=  0.0000E+00    Blocked  Area=  0.0000E+00    Leakage      =  0.0000E+00


      time   airbag/cv #  volume        pressure    internal energy      dm/dt in      density dm/dt out  total mass gas temp. surface area   reaction dm/dt outp dm/dt outv
 6.49522E+00       1     4.6249E+06     1.0144E-04     1.1741E+03     2.1651E-03     1.5943E-09  0.000E+00  7.373E-03  8.116E+02  4.231E+05  0.000E+00  0.000E+00  0.000E+00
    Material I.D.=           1  Unblocked  Area=  0.0000E+00    Blocked  Area=  0.0000E+00    Leakage      =  0.0000E+00
    Material I.D.=           2  Unblocked  Area=  0.0000E+00    Blocked  Area=  0.0000E+00    Leakage      =  0.0000E+00


      time   airbag/cv #  volume        pressure    internal energy      dm/dt in      density dm/dt out  total mass gas temp. surface area   reaction dm/dt outp dm/dt outv
 6.99485E+00       1     5.3193E+06     1.0145E-04     1.3506E+03     2.3316E-03     1.5975E-09  0.000E+00  8.497E-03  8.101E+02  4.230E+05  0.000E+00  0.000E+00  0.000E+00
    Material I.D.=           1  Unblocked  Area=  0.0000E+00    Blocked  Area=  0.0000E+00    Leakage      =  0.0000E+00
    Material I.D.=           2  Unblocked  Area=  0.0000E+00    Blocked  Area=  0.0000E+00    Leakage      =  0.0000E+00


      time   airbag/cv #  volume        pressure    internal energy      dm/dt in      density dm/dt out  total mass gas temp. surface area   reaction dm/dt outp dm/dt outv
 7.49448E+00       1     6.0659E+06     1.0145E-04     1.5400E+03     2.4982E-03     1.5999E-09  0.000E+00  9.705E-03  8.088E+02  4.229E+05  0.000E+00  0.000E+00  0.000E+00
    Material I.D.=           1  Unblocked  Area=  0.0000E+00    Blocked  Area=  0.0000E+00    Leakage      =  0.0000E+00
    Material I.D.=           2  Unblocked  Area=  0.0000E+00    Blocked  Area=  0.0000E+00    Leakage      =  0.0000E+00


      time   airbag/cv #  volume        pressure    internal energy      dm/dt in      density dm/dt out  total mass gas temp. surface area   reaction dm/dt outp dm/dt outv
 7.99412E+00       1     6.8627E+06     1.0147E-04     1.7426E+03     2.6647E-03     1.6021E-09  0.000E+00  1.099E-02  8.078E+02  4.228E+05  0.000E+00  0.000E+00  0.000E+00
    Material I.D.=           1  Unblocked  Area=  0.0000E+00    Blocked  Area=  0.0000E+00    Leakage      =  0.0000E+00
    Material I.D.=           2  Unblocked  Area=  0.0000E+00    Blocked  Area=  0.0000E+00    Leakage      =  0.0000E+00


      time   airbag/cv #  volume        pressure    internal energy      dm/dt in      density dm/dt out  total mass gas temp. surface area   reaction dm/dt outp dm/dt outv
 8.49375E+00       1     7.7113E+06     1.0148E-04     1.9583E+03     2.8312E-03     1.6039E-09  0.000E+00  1.237E-02  8.070E+02  4.227E+05  0.000E+00  0.000E+00  0.000E+00
    Material I.D.=           1  Unblocked  Area=  0.0000E+00    Blocked  Area=  0.0000E+00    Leakage      =  0.0000E+00
    Material I.D.=           2  Unblocked  Area=  0.0000E+00    Blocked  Area=  0.0000E+00    Leakage      =  0.0000E+00


      time   airbag/cv #  volume        pressure    internal energy      dm/dt in      density dm/dt out  total mass gas temp. surface area   reaction dm/dt outp dm/dt outv
 8.99338E+00       1     8.6109E+06     1.0149E-04     2.1870E+03     2.9978E-03     1.6056E-09  0.000E+00  1.383E-02  8.063E+02  4.226E+05  0.000E+00  0.000E+00  0.000E+00
    Material I.D.=           1  Unblocked  Area=  0.0000E+00    Blocked  Area=  0.0000E+00    Leakage      =  0.0000E+00
    Material I.D.=           2  Unblocked  Area=  0.0000E+00    Blocked  Area=  0.0000E+00    Leakage      =  0.0000E+00


      time   airbag/cv #  volume        pressure    internal energy      dm/dt in      density dm/dt out  total mass gas temp. surface area   reaction dm/dt outp dm/dt outv
 9.49301E+00       1     9.5620E+06     1.0150E-04     2.4288E+03     3.1643E-03     1.6069E-09  0.000E+00  1.537E-02  8.057E+02  4.226E+05  0.000E+00  0.000E+00  0.000E+00
    Material I.D.=           1  Unblocked  Area=  0.0000E+00    Blocked  Area=  0.0000E+00    Leakage      =  0.0000E+00
    Material I.D.=           2  Unblocked  Area=  0.0000E+00    Blocked  Area=  0.0000E+00    Leakage      =  0.0000E+00


      time   airbag/cv #  volume        pressure    internal energy      dm/dt in      density dm/dt out  total mass gas temp. surface area   reaction dm/dt outp dm/dt outv
 9.99265E+00       1     1.0562E+07     1.0154E-04     2.6839E+03     3.3309E-03     1.6085E-09  0.000E+00  1.699E-02  8.052E+02  4.225E+05  0.000E+00  0.000E+00  0.000E+00
    Material I.D.=           1  Unblocked  Area=  0.0000E+00    Blocked  Area=  0.0000E+00    Leakage      =  0.0000E+00
    Material I.D.=           2  Unblocked  Area=  0.0000E+00    Blocked  Area=  0.0000E+00    Leakage      =  0.0000E+00


      time   airbag/cv #  volume        pressure    internal energy      dm/dt in      density dm/dt out  total mass gas temp. surface area   reaction dm/dt outp dm/dt outv
 1.04997E+01       1     1.1631E+07     1.0156E-04     2.9560E+03     3.4999E-03     1.6096E-09  0.000E+00  1.872E-02  8.048E+02  4.224E+05  0.000E+00  0.000E+00  0.000E+00
    Material I.D.=           1  Unblocked  Area=  0.0000E+00    Blocked  Area=  0.0000E+00    Leakage      =  0.0000E+00
    Material I.D.=           2  Unblocked  Area=  0.0000E+00    Blocked  Area=  0.0000E+00    Leakage      =  0.0000E+00


      time   airbag/cv #  volume        pressure    internal energy      dm/dt in      density dm/dt out  total mass gas temp. surface area   reaction dm/dt outp dm/dt outv
 1.09994E+01       1     1.2737E+07     1.0155E-04     3.2370E+03     3.6665E-03     1.6104E-09  0.000E+00  2.051E-02  8.043E+02  4.222E+05  0.000E+00  0.000E+00  0.000E+00
    Material I.D.=           1  Unblocked  Area=  0.0000E+00    Blocked  Area=  0.0000E+00    Leakage      =  0.0000E+00
    Material I.D.=           2  Unblocked  Area=  0.0000E+00    Blocked  Area=  0.0000E+00    Leakage      =  0.0000E+00


      time   airbag/cv #  volume        pressure    internal energy      dm/dt in      density dm/dt out  total mass gas temp. surface area   reaction dm/dt outp dm/dt outv
 1.14990E+01       1     1.3890E+07     1.0160E-04     3.5316E+03     3.8330E-03     1.6117E-09  0.000E+00  2.239E-02  8.041E+02  4.218E+05  0.000E+00  0.000E+00  0.000E+00
    Material I.D.=           1  Unblocked  Area=  0.0000E+00    Blocked  Area=  0.0000E+00    Leakage      =  0.0000E+00
    Material I.D.=           2  Unblocked  Area=  0.0000E+00    Blocked  Area=  0.0000E+00    Leakage      =  0.0000E+00


      time   airbag/cv #  volume        pressure    internal energy      dm/dt in      density dm/dt out  total mass gas temp. surface area   reaction dm/dt outp dm/dt outv
 1.19986E+01       1     1.5094E+07     1.0164E-04     3.8392E+03     3.9995E-03     1.6128E-09  0.000E+00  2.434E-02  8.038E+02  4.215E+05  0.000E+00  0.000E+00  0.000E+00
    Material I.D.=           1  Unblocked  Area=  0.0000E+00    Blocked  Area=  0.0000E+00    Leakage      =  0.0000E+00
    Material I.D.=           2  Unblocked  Area=  0.0000E+00    Blocked  Area=  0.0000E+00    Leakage      =  0.0000E+00


      time   airbag/cv #  volume        pressure    internal energy      dm/dt in      density dm/dt out  total mass gas temp. surface area   reaction dm/dt outp dm/dt outv
 1.24983E+01       1     1.6350E+07     1.0167E-04     4.1599E+03     4.1661E-03     1.6137E-09  0.000E+00  2.638E-02  8.036E+02  4.212E+05  0.000E+00  0.000E+00  0.000E+00
    Material I.D.=           1  Unblocked  Area=  0.0000E+00    Blocked  Area=  0.0000E+00    Leakage      =  0.0000E+00
    Material I.D.=           2  Unblocked  Area=  0.0000E+00    Blocked  Area=  0.0000E+00    Leakage      =  0.0000E+00


      time   airbag/cv #  volume        pressure    internal energy      dm/dt in      density dm/dt out  total mass gas temp. surface area   reaction dm/dt outp dm/dt outv
 1.29979E+01       1     1.7659E+07     1.0168E-04     4.4933E+03     4.3326E-03     1.6144E-09  0.000E+00  2.851E-02  8.034E+02  4.209E+05  0.000E+00  0.000E+00  0.000E+00
    Material I.D.=           1  Unblocked  Area=  0.0000E+00    Blocked  Area=  0.0000E+00    Leakage      =  0.0000E+00
    Material I.D.=           2  Unblocked  Area=  0.0000E+00    Blocked  Area=  0.0000E+00    Leakage      =  0.0000E+00


      time   airbag/cv #  volume        pressure    internal energy      dm/dt in      density dm/dt out  total mass gas temp. surface area   reaction dm/dt outp dm/dt outv
 1.34975E+01       1     1.9007E+07     1.0177E-04     4.8410E+03     4.4992E-03     1.6160E-09  0.000E+00  3.071E-02  8.033E+02  4.205E+05  0.000E+00  0.000E+00  0.000E+00
    Material I.D.=           1  Unblocked  Area=  0.0000E+00    Blocked  Area=  0.0000E+00    Leakage      =  0.0000E+00
    Material I.D.=           2  Unblocked  Area=  0.0000E+00    Blocked  Area=  0.0000E+00    Leakage      =  0.0000E+00


      time   airbag/cv #  volume        pressure    internal energy      dm/dt in      density dm/dt out  total mass gas temp. surface area   reaction dm/dt outp dm/dt outv
 1.39972E+01       1     2.0398E+07     1.0192E-04     5.2025E+03     4.6657E-03     1.6181E-09  0.000E+00  3.300E-02  8.034E+02  4.201E+05  0.000E+00  0.000E+00  0.000E+00
    Material I.D.=           1  Unblocked  Area=  0.0000E+00    Blocked  Area=  0.0000E+00    Leakage      =  0.0000E+00
    Material I.D.=           2  Unblocked  Area=  0.0000E+00    Blocked  Area=  0.0000E+00    Leakage      =  0.0000E+00


      time   airbag/cv #  volume        pressure    internal energy      dm/dt in      density dm/dt out  total mass gas temp. surface area   reaction dm/dt outp dm/dt outv
 1.44968E+01       1     2.1849E+07     1.0198E-04     5.5759E+03     4.8323E-03     1.6192E-09  0.000E+00  3.538E-02  8.033E+02  4.197E+05  0.000E+00  0.000E+00  0.000E+00
    Material I.D.=           1  Unblocked  Area=  0.0000E+00    Blocked  Area=  0.0000E+00    Leakage      =  0.0000E+00
    Material I.D.=           2  Unblocked  Area=  0.0000E+00    Blocked  Area=  0.0000E+00    Leakage      =  0.0000E+00


      time   airbag/cv #  volume        pressure    internal energy      dm/dt in      density dm/dt out  total mass gas temp. surface area   reaction dm/dt outp dm/dt outv
 1.49964E+01       1     2.3361E+07     1.0197E-04     5.9613E+03     4.9988E-03     1.6195E-09  0.000E+00  3.783E-02  8.031E+02  4.193E+05  0.000E+00  0.000E+00  0.000E+00
    Material I.D.=           1  Unblocked  Area=  0.0000E+00    Blocked  Area=  0.0000E+00    Leakage      =  0.0000E+00
    Material I.D.=           2  Unblocked  Area=  0.0000E+00    Blocked  Area=  0.0000E+00    Leakage      =  0.0000E+00


      time   airbag/cv #  volume        pressure    internal energy      dm/dt in      density dm/dt out  total mass gas temp. surface area   reaction dm/dt outp dm/dt outv
 1.54961E+01       1     2.4879E+07     1.0222E-04     6.3644E+03     5.1654E-03     1.6228E-09  0.000E+00  4.037E-02  8.034E+02  4.188E+05  0.000E+00  0.000E+00  0.000E+00
    Material I.D.=           1  Unblocked  Area=  0.0000E+00    Blocked  Area=  0.0000E+00    Leakage      =  0.0000E+00
    Material I.D.=           2  Unblocked  Area=  0.0000E+00    Blocked  Area=  0.0000E+00    Leakage      =  0.0000E+00


      time   airbag/cv #  volume        pressure    internal energy      dm/dt in      density dm/dt out  total mass gas temp. surface area   reaction dm/dt outp dm/dt outv
 1.59957E+01       1     2.6440E+07     1.0248E-04     6.7807E+03     5.3319E-03     1.6262E-09  0.000E+00  4.300E-02  8.038E+02  4.183E+05  0.000E+00  0.000E+00  0.000E+00
    Material I.D.=           1  Unblocked  Area=  0.0000E+00    Blocked  Area=  0.0000E+00    Leakage      =  0.0000E+00
    Material I.D.=           2  Unblocked  Area=  0.0000E+00    Blocked  Area=  0.0000E+00    Leakage      =  0.0000E+00


      time   airbag/cv #  volume        pressure    internal energy      dm/dt in      density dm/dt out  total mass gas temp. surface area   reaction dm/dt outp dm/dt outv
 1.64953E+01       1     2.8126E+07     1.0233E-04     7.2026E+03     5.4984E-03     1.6250E-09  0.000E+00  4.570E-02  8.032E+02  4.178E+05  0.000E+00  0.000E+00  0.000E+00
    Material I.D.=           1  Unblocked  Area=  0.0000E+00    Blocked  Area=  0.0000E+00    Leakage      =  0.0000E+00
    Material I.D.=           2  Unblocked  Area=  0.0000E+00    Blocked  Area=  0.0000E+00    Leakage      =  0.0000E+00


      time   airbag/cv #  volume        pressure    internal energy      dm/dt in      density dm/dt out  total mass gas temp. surface area   reaction dm/dt outp dm/dt outv
 1.69950E+01       1     2.9646E+07     1.0323E-04     7.6592E+03     5.6650E-03     1.6357E-09  0.000E+00  4.849E-02  8.050E+02  4.173E+05  0.000E+00  0.000E+00  0.000E+00
    Material I.D.=           1  Unblocked  Area=  0.0000E+00    Blocked  Area=  0.0000E+00    Leakage      =  0.0000E+00
    Material I.D.=           2  Unblocked  Area=  0.0000E+00    Blocked  Area=  0.0000E+00    Leakage      =  0.0000E+00


      time   airbag/cv #  volume        pressure    internal energy      dm/dt in      density dm/dt out  total mass gas temp. surface area   reaction dm/dt outp dm/dt outv
 1.74946E+01       1     3.1588E+07     1.0235E-04     8.0910E+03     5.8315E-03     1.6261E-09  0.000E+00  5.137E-02  8.028E+02  4.166E+05  0.000E+00  0.000E+00  0.000E+00
    Material I.D.=           1  Unblocked  Area=  0.0000E+00    Blocked  Area=  0.0000E+00    Leakage      =  0.0000E+00
    Material I.D.=           2  Unblocked  Area=  0.0000E+00    Blocked  Area=  0.0000E+00    Leakage      =  0.0000E+00


      time   airbag/cv #  volume        pressure    internal energy      dm/dt in      density dm/dt out  total mass gas temp. surface area   reaction dm/dt outp dm/dt outv
 1.79942E+01       1     3.3101E+07     1.0363E-04     8.5842E+03     5.9981E-03     1.6411E-09  0.000E+00  5.432E-02  8.054E+02  4.157E+05  0.000E+00  0.000E+00  0.000E+00
    Material I.D.=           1  Unblocked  Area=  0.0000E+00    Blocked  Area=  0.0000E+00    Leakage      =  0.0000E+00
    Material I.D.=           2  Unblocked  Area=  0.0000E+00    Blocked  Area=  0.0000E+00    Leakage      =  0.0000E+00


      time   airbag/cv #  volume        pressure    internal energy      dm/dt in      density dm/dt out  total mass gas temp. surface area   reaction dm/dt outp dm/dt outv
 1.84939E+01       1     3.3946E+07     1.0786E-04     9.1627E+03     6.1646E-03     1.6898E-09  0.000E+00  5.736E-02  8.142E+02  4.158E+05  0.000E+00  0.000E+00  0.000E+00
    Material I.D.=           1  Unblocked  Area=  0.0000E+00    Blocked  Area=  0.0000E+00    Leakage      =  0.0000E+00
    Material I.D.=           2  Unblocked  Area=  0.0000E+00    Blocked  Area=  0.0000E+00    Leakage      =  0.0000E+00


      time   airbag/cv #  volume        pressure    internal energy      dm/dt in      density dm/dt out  total mass gas temp. surface area   reaction dm/dt outp dm/dt outv
 1.89935E+01       1     3.4677E+07     1.1255E-04     9.7673E+03     6.3312E-03     1.7442E-09  0.000E+00  6.048E-02  8.231E+02  4.194E+05  0.000E+00  0.000E+00  0.000E+00
    Material I.D.=           1  Unblocked  Area=  0.0000E+00    Blocked  Area=  0.0000E+00    Leakage      =  0.0000E+00
    Material I.D.=           2  Unblocked  Area=  0.0000E+00    Blocked  Area=  0.0000E+00    Leakage      =  0.0000E+00


      time   airbag/cv #  volume        pressure    internal energy      dm/dt in      density dm/dt out  total mass gas temp. surface area   reaction dm/dt outp dm/dt outv
 1.94931E+01       1     3.6664E+07     1.1168E-04     1.0247E+04     6.4977E-03     1.7371E-09  0.000E+00  6.369E-02  8.201E+02  4.243E+05  0.000E+00  0.000E+00  0.000E+00
    Material I.D.=           1  Unblocked  Area=  0.0000E+00    Blocked  Area=  0.0000E+00    Leakage      =  0.0000E+00
    Material I.D.=           2  Unblocked  Area=  0.0000E+00    Blocked  Area=  0.0000E+00    Leakage      =  0.0000E+00


      time   airbag/cv #  volume        pressure    internal energy      dm/dt in      density dm/dt out  total mass gas temp. surface area   reaction dm/dt outp dm/dt outv
 1.99927E+01       1     3.7943E+07     1.1402E-04     1.0827E+04     6.6642E-03     1.7652E-09  0.000E+00  6.698E-02  8.239E+02  4.278E+05  0.000E+00  0.000E+00  0.000E+00
    Material I.D.=           1  Unblocked  Area=  0.0000E+00    Blocked  Area=  0.0000E+00    Leakage      =  0.0000E+00
    Material I.D.=           2  Unblocked  Area=  0.0000E+00    Blocked  Area=  0.0000E+00    Leakage      =  0.0000E+00


      time   airbag/cv #  volume        pressure    internal energy      dm/dt in      density dm/dt out  total mass gas temp. surface area   reaction dm/dt outp dm/dt outv
 2.04998E+01       1     3.7370E+07     1.2454E-04     1.1647E+04     6.8333E-03     1.8839E-09  0.000E+00  7.040E-02  8.432E+02  4.320E+05  0.000E+00  0.000E+00  0.000E+00
    Material I.D.=           1  Unblocked  Area=  0.0000E+00    Blocked  Area=  0.0000E+00    Leakage      =  0.0000E+00
    Material I.D.=           2  Unblocked  Area=  0.0000E+00    Blocked  Area=  0.0000E+00    Leakage      =  0.0000E+00


      time   airbag/cv #  volume        pressure    internal energy      dm/dt in      density dm/dt out  total mass gas temp. surface area   reaction dm/dt outp dm/dt outv
 2.09995E+01       1     3.8008E+07     1.2956E-04     1.2324E+04     6.9998E-03     1.9432E-09  0.000E+00  7.386E-02  8.505E+02  4.406E+05  0.000E+00  0.000E+00  0.000E+00
    Material I.D.=           1  Unblocked  Area=  0.0000E+00    Blocked  Area=  0.0000E+00    Leakage      =  0.0000E+00
    Material I.D.=           2  Unblocked  Area=  0.0000E+00    Blocked  Area=  0.0000E+00    Leakage      =  0.0000E+00


      time   airbag/cv #  volume        pressure    internal energy      dm/dt in      density dm/dt out  total mass gas temp. surface area   reaction dm/dt outp dm/dt outv
 2.14991E+01       1     3.9743E+07     1.2947E-04     1.2877E+04     7.1664E-03     1.9474E-09  0.000E+00  7.740E-02  8.480E+02  4.515E+05  0.000E+00  0.000E+00  0.000E+00
    Material I.D.=           1  Unblocked  Area=  0.0000E+00    Blocked  Area=  0.0000E+00    Leakage      =  0.0000E+00
    Material I.D.=           2  Unblocked  Area=  0.0000E+00    Blocked  Area=  0.0000E+00    Leakage      =  0.0000E+00


      time   airbag/cv #  volume        pressure    internal energy      dm/dt in      density dm/dt out  total mass gas temp. surface area   reaction dm/dt outp dm/dt outv
 2.19987E+01       1     3.9757E+07     1.3742E-04     1.3672E+04     7.3329E-03     2.0379E-09  0.000E+00  8.102E-02  8.601E+02  4.579E+05  0.000E+00  0.000E+00  0.000E+00
    Material I.D.=           1  Unblocked  Area=  0.0000E+00    Blocked  Area=  0.0000E+00    Leakage      =  0.0000E+00
    Material I.D.=           2  Unblocked  Area=  0.0000E+00    Blocked  Area=  0.0000E+00    Leakage      =  0.0000E+00


      time   airbag/cv #  volume        pressure    internal energy      dm/dt in      density dm/dt out  total mass gas temp. surface area   reaction dm/dt outp dm/dt outv
 2.24984E+01       1     4.0072E+07     1.4402E-04     1.4442E+04     7.4995E-03     2.1143E-09  0.000E+00  8.472E-02  8.688E+02  4.582E+05  0.000E+00  0.000E+00  0.000E+00
    Material I.D.=           1  Unblocked  Area=  0.0000E+00    Blocked  Area=  0.0000E+00    Leakage      =  0.0000E+00
    Material I.D.=           2  Unblocked  Area=  0.0000E+00    Blocked  Area=  0.0000E+00    Leakage      =  0.0000E+00


      time   airbag/cv #  volume        pressure    internal energy      dm/dt in      density dm/dt out  total mass gas temp. surface area   reaction dm/dt outp dm/dt outv
 2.29980E+01       1     4.3393E+07     1.3639E-04     1.4811E+04     7.6660E-03     2.0398E-09  0.000E+00  8.851E-02  8.529E+02  4.527E+05  0.000E+00  0.000E+00  0.000E+00
    Material I.D.=           1  Unblocked  Area=  0.0000E+00    Blocked  Area=  0.0000E+00    Leakage      =  0.0000E+00
    Material I.D.=           2  Unblocked  Area=  0.0000E+00    Blocked  Area=  0.0000E+00    Leakage      =  0.0000E+00


      time   airbag/cv #  volume        pressure    internal energy      dm/dt in      density dm/dt out  total mass gas temp. surface area   reaction dm/dt outp dm/dt outv
 2.34976E+01       1     4.3969E+07     1.4161E-04     1.5582E+04     7.8325E-03     2.1012E-09  0.000E+00  9.239E-02  8.596E+02  4.507E+05  0.000E+00  0.000E+00  0.000E+00
    Material I.D.=           1  Unblocked  Area=  0.0000E+00    Blocked  Area=  0.0000E+00    Leakage      =  0.0000E+00
    Material I.D.=           2  Unblocked  Area=  0.0000E+00    Blocked  Area=  0.0000E+00    Leakage      =  0.0000E+00


      time   airbag/cv #  volume        pressure    internal energy      dm/dt in      density dm/dt out  total mass gas temp. surface area   reaction dm/dt outp dm/dt outv
 2.39973E+01       1     4.3813E+07     1.5024E-04     1.6473E+04     7.9991E-03     2.1989E-09  0.000E+00  9.634E-02  8.715E+02  4.526E+05  0.000E+00  0.000E+00  0.000E+00
    Material I.D.=           1  Unblocked  Area=  0.0000E+00    Blocked  Area=  0.0000E+00    Leakage      =  0.0000E+00
    Material I.D.=           2  Unblocked  Area=  0.0000E+00    Blocked  Area=  0.0000E+00    Leakage      =  0.0000E+00


      time   airbag/cv #  volume        pressure    internal energy      dm/dt in      density dm/dt out  total mass gas temp. surface area   reaction dm/dt outp dm/dt outv
 2.44969E+01       1     4.6411E+07     1.4616E-04     1.6976E+04     8.1656E-03     2.1629E-09  0.000E+00  1.004E-01  8.620E+02  4.642E+05  0.000E+00  0.000E+00  0.000E+00
    Material I.D.=           1  Unblocked  Area=  0.0000E+00    Blocked  Area=  0.0000E+00    Leakage      =  0.0000E+00
    Material I.D.=           2  Unblocked  Area=  0.0000E+00    Blocked  Area=  0.0000E+00    Leakage      =  0.0000E+00


      time   airbag/cv #  volume        pressure    internal energy      dm/dt in      density dm/dt out  total mass gas temp. surface area   reaction dm/dt outp dm/dt outv
 2.49965E+01       1     4.5985E+07     1.5595E-04     1.7947E+04     8.3322E-03     2.2725E-09  0.000E+00  1.045E-01  8.753E+02  4.736E+05  0.000E+00  0.000E+00  0.000E+00
    Material I.D.=           1  Unblocked  Area=  0.0000E+00    Blocked  Area=  0.0000E+00    Leakage      =  0.0000E+00
    Material I.D.=           2  Unblocked  Area=  0.0000E+00    Blocked  Area=  0.0000E+00    Leakage      =  0.0000E+00


      time   airbag/cv #  volume        pressure    internal energy      dm/dt in      density dm/dt out  total mass gas temp. surface area   reaction dm/dt outp dm/dt outv
 2.54962E+01       1     4.5189E+07     1.6801E-04     1.9000E+04     8.4987E-03     2.4056E-09  0.000E+00  1.087E-01  8.908E+02  4.854E+05  0.000E+00  0.000E+00  0.000E+00
    Material I.D.=           1  Unblocked  Area=  0.0000E+00    Blocked  Area=  0.0000E+00    Leakage      =  0.0000E+00
    Material I.D.=           2  Unblocked  Area=  0.0000E+00    Blocked  Area=  0.0000E+00    Leakage      =  0.0000E+00


      time   airbag/cv #  volume        pressure    internal energy      dm/dt in      density dm/dt out  total mass gas temp. surface area   reaction dm/dt outp dm/dt outv
 2.59958E+01       1     5.0077E+07     1.5287E-04     1.9158E+04     8.6653E-03     2.2565E-09  0.000E+00  1.130E-01  8.641E+02  4.829E+05  0.000E+00  0.000E+00  0.000E+00
    Material I.D.=           1  Unblocked  Area=  0.0000E+00    Blocked  Area=  0.0000E+00    Leakage      =  0.0000E+00
    Material I.D.=           2  Unblocked  Area=  0.0000E+00    Blocked  Area=  0.0000E+00    Leakage      =  0.0000E+00


      time   airbag/cv #  volume        pressure    internal energy      dm/dt in      density dm/dt out  total mass gas temp. surface area   reaction dm/dt outp dm/dt outv
 2.64954E+01       1     5.0542E+07     1.5848E-04     2.0045E+04     8.8318E-03     2.3222E-09  0.000E+00  1.174E-01  8.705E+02  4.700E+05  0.000E+00  0.000E+00  0.000E+00
    Material I.D.=           1  Unblocked  Area=  0.0000E+00    Blocked  Area=  0.0000E+00    Leakage      =  0.0000E+00
    Material I.D.=           2  Unblocked  Area=  0.0000E+00    Blocked  Area=  0.0000E+00    Leakage      =  0.0000E+00


      time   airbag/cv #  volume        pressure    internal energy      dm/dt in      density dm/dt out  total mass gas temp. surface area   reaction dm/dt outp dm/dt outv
 2.69951E+01       1     4.9118E+07     1.7288E-04     2.1250E+04     8.9984E-03     2.4802E-09  0.000E+00  1.218E-01  8.891E+02  4.790E+05  0.000E+00  0.000E+00  0.000E+00
    Material I.D.=           1  Unblocked  Area=  0.0000E+00    Blocked  Area=  0.0000E+00    Leakage      =  0.0000E+00
    Material I.D.=           2  Unblocked  Area=  0.0000E+00    Blocked  Area=  0.0000E+00    Leakage      =  0.0000E+00


      time   airbag/cv #  volume        pressure    internal energy      dm/dt in      density dm/dt out  total mass gas temp. surface area   reaction dm/dt outp dm/dt outv
 2.74947E+01       1     5.2612E+07     1.6447E-04     2.1655E+04     9.1649E-03     2.4017E-09  0.000E+00  1.264E-01  8.735E+02  4.843E+05  0.000E+00  0.000E+00  0.000E+00
    Material I.D.=           1  Unblocked  Area=  0.0000E+00    Blocked  Area=  0.0000E+00    Leakage      =  0.0000E+00
    Material I.D.=           2  Unblocked  Area=  0.0000E+00    Blocked  Area=  0.0000E+00    Leakage      =  0.0000E+00


      time   airbag/cv #  volume        pressure    internal energy      dm/dt in      density dm/dt out  total mass gas temp. surface area   reaction dm/dt outp dm/dt outv
 2.79943E+01       1     5.2583E+07     1.7235E-04     2.2680E+04     9.3314E-03     2.4910E-09  0.000E+00  1.310E-01  8.825E+02  4.989E+05  0.000E+00  0.000E+00  0.000E+00
    Material I.D.=           1  Unblocked  Area=  0.0000E+00    Blocked  Area=  0.0000E+00    Leakage      =  0.0000E+00
    Material I.D.=           2  Unblocked  Area=  0.0000E+00    Blocked  Area=  0.0000E+00    Leakage      =  0.0000E+00


      time   airbag/cv #  volume        pressure    internal energy      dm/dt in      density dm/dt out  total mass gas temp. surface area   reaction dm/dt outp dm/dt outv
 2.84940E+01       1     4.9639E+07     1.9523E-04     2.4252E+04     9.4980E-03     2.7335E-09  0.000E+00  1.357E-01  9.110E+02  5.028E+05  0.000E+00  0.000E+00  0.000E+00
    Material I.D.=           1  Unblocked  Area=  0.0000E+00    Blocked  Area=  0.0000E+00    Leakage      =  0.0000E+00
    Material I.D.=           2  Unblocked  Area=  0.0000E+00    Blocked  Area=  0.0000E+00    Leakage      =  0.0000E+00


      time   airbag/cv #  volume        pressure    internal energy      dm/dt in      density dm/dt out  total mass gas temp. surface area   reaction dm/dt outp dm/dt outv
 2.89936E+01       1     5.6983E+07     1.6818E-04     2.3983E+04     9.6645E-03     2.4652E-09  0.000E+00  1.405E-01  8.702E+02  5.045E+05  0.000E+00  0.000E+00  0.000E+00
    Material I.D.=           1  Unblocked  Area=  0.0000E+00    Blocked  Area=  0.0000E+00    Leakage      =  0.0000E+00
    Material I.D.=           2  Unblocked  Area=  0.0000E+00    Blocked  Area=  0.0000E+00    Leakage      =  0.0000E+00


      time   airbag/cv #  volume        pressure    internal energy      dm/dt in      density dm/dt out  total mass gas temp. surface area   reaction dm/dt outp dm/dt outv
 2.94932E+01       1     5.3984E+07     1.8944E-04     2.5593E+04     9.8311E-03     2.6924E-09  0.000E+00  1.453E-01  8.975E+02  4.923E+05  0.000E+00  0.000E+00  0.000E+00
    Material I.D.=           1  Unblocked  Area=  0.0000E+00    Blocked  Area=  0.0000E+00    Leakage      =  0.0000E+00
    Material I.D.=           2  Unblocked  Area=  0.0000E+00    Blocked  Area=  0.0000E+00    Leakage      =  0.0000E+00


      time   airbag/cv #  volume        pressure    internal energy      dm/dt in      density dm/dt out  total mass gas temp. surface area   reaction dm/dt outp dm/dt outv
 2.99929E+01       1     5.4166E+07     1.9653E-04     2.6641E+04     9.9976E-03     2.7748E-09  0.000E+00  1.503E-01  9.034E+02  5.020E+05  0.000E+00  0.000E+00  0.000E+00
    Material I.D.=           1  Unblocked  Area=  0.0000E+00    Blocked  Area=  0.0000E+00    Leakage      =  0.0000E+00
    Material I.D.=           2  Unblocked  Area=  0.0000E+00    Blocked  Area=  0.0000E+00    Leakage      =  0.0000E+00


      time   airbag/cv #  volume        pressure    internal energy      dm/dt in      density dm/dt out  total mass gas temp. surface area   reaction dm/dt outp dm/dt outv
 3.04999E+01       1     5.9589E+07     1.7913E-04     2.6713E+04     9.5001E-03     2.6052E-09  0.000E+00  1.552E-01  8.770E+02  5.087E+05  0.000E+00  0.000E+00  0.000E+00
    Material I.D.=           1  Unblocked  Area=  0.0000E+00    Blocked  Area=  0.0000E+00    Leakage      =  0.0000E+00
    Material I.D.=           2  Unblocked  Area=  0.0000E+00    Blocked  Area=  0.0000E+00    Leakage      =  0.0000E+00


      time   airbag/cv #  volume        pressure    internal energy      dm/dt in      density dm/dt out  total mass gas temp. surface area   reaction dm/dt outp dm/dt outv
 3.09996E+01       1     5.5513E+07     2.0528E-04     2.8519E+04     9.0004E-03     2.8798E-09  0.000E+00  1.599E-01  9.092E+02  5.276E+05  0.000E+00  0.000E+00  0.000E+00
    Material I.D.=           1  Unblocked  Area=  0.0000E+00    Blocked  Area=  0.0000E+00    Leakage      =  0.0000E+00
    Material I.D.=           2  Unblocked  Area=  0.0000E+00    Blocked  Area=  0.0000E+00    Leakage      =  0.0000E+00


      time   airbag/cv #  volume        pressure    internal energy      dm/dt in      density dm/dt out  total mass gas temp. surface area   reaction dm/dt outp dm/dt outv
 3.14992E+01       1     5.8427E+07     1.9761E-04     2.8893E+04     8.5008E-03     2.8109E-09  0.000E+00  1.642E-01  8.967E+02  5.167E+05  0.000E+00  0.000E+00  0.000E+00
    Material I.D.=           1  Unblocked  Area=  0.0000E+00    Blocked  Area=  0.0000E+00    Leakage      =  0.0000E+00
    Material I.D.=           2  Unblocked  Area=  0.0000E+00    Blocked  Area=  0.0000E+00    Leakage      =  0.0000E+00


      time   airbag/cv #  volume        pressure    internal energy      dm/dt in      density dm/dt out  total mass gas temp. surface area   reaction dm/dt outp dm/dt outv
 3.19988E+01       1     5.9860E+07     1.9706E-04     2.9521E+04     8.0012E-03     2.8125E-09  0.000E+00  1.684E-01  8.937E+02  5.203E+05  0.000E+00  0.000E+00  0.000E+00
    Material I.D.=           1  Unblocked  Area=  0.0000E+00    Blocked  Area=  0.0000E+00    Leakage      =  0.0000E+00
    Material I.D.=           2  Unblocked  Area=  0.0000E+00    Blocked  Area=  0.0000E+00    Leakage      =  0.0000E+00


      time   airbag/cv #  volume        pressure    internal energy      dm/dt in      density dm/dt out  total mass gas temp. surface area   reaction dm/dt outp dm/dt outv
 3.24985E+01       1     5.9252E+07     2.0569E-04     3.0499E+04     7.5015E-03     2.9067E-09  0.000E+00  1.722E-01  9.026E+02  5.128E+05  0.000E+00  0.000E+00  0.000E+00
    Material I.D.=           1  Unblocked  Area=  0.0000E+00    Blocked  Area=  0.0000E+00    Leakage      =  0.0000E+00
    Material I.D.=           2  Unblocked  Area=  0.0000E+00    Blocked  Area=  0.0000E+00    Leakage      =  0.0000E+00


      time   airbag/cv #  volume        pressure    internal energy      dm/dt in      density dm/dt out  total mass gas temp. surface area   reaction dm/dt outp dm/dt outv
 3.29981E+01       1     5.5950E+07     2.2870E-04     3.2022E+04     7.0019E-03     3.1429E-09  0.000E+00  1.758E-01  9.281E+02  5.230E+05  0.000E+00  0.000E+00  0.000E+00
    Material I.D.=           1  Unblocked  Area=  0.0000E+00    Blocked  Area=  0.0000E+00    Leakage      =  0.0000E+00
    Material I.D.=           2  Unblocked  Area=  0.0000E+00    Blocked  Area=  0.0000E+00    Leakage      =  0.0000E+00


      time   airbag/cv #  volume        pressure    internal energy      dm/dt in      density dm/dt out  total mass gas temp. surface area   reaction dm/dt outp dm/dt outv
 3.34977E+01       1     6.3376E+07     1.9670E-04     3.1196E+04     6.5023E-03     2.8279E-09  0.000E+00  1.792E-01  8.872E+02  5.408E+05  0.000E+00  0.000E+00  0.000E+00
    Material I.D.=           1  Unblocked  Area=  0.0000E+00    Blocked  Area=  0.0000E+00    Leakage      =  0.0000E+00
    Material I.D.=           2  Unblocked  Area=  0.0000E+00    Blocked  Area=  0.0000E+00    Leakage      =  0.0000E+00


      time   airbag/cv #  volume        pressure    internal energy      dm/dt in      density dm/dt out  total mass gas temp. surface area   reaction dm/dt outp dm/dt outv
 3.39974E+01       1     6.1628E+07     2.0908E-04     3.2246E+04     6.0026E-03     2.9587E-09  0.000E+00  1.823E-01  9.013E+02  5.303E+05  0.000E+00  0.000E+00  0.000E+00
    Material I.D.=           1  Unblocked  Area=  0.0000E+00    Blocked  Area=  0.0000E+00    Leakage      =  0.0000E+00
    Material I.D.=           2  Unblocked  Area=  0.0000E+00    Blocked  Area=  0.0000E+00    Leakage      =  0.0000E+00


      time   airbag/cv #  volume        pressure    internal energy      dm/dt in      density dm/dt out  total mass gas temp. surface area   reaction dm/dt outp dm/dt outv
 3.44970E+01       1     5.7234E+07     2.3638E-04     3.3856E+04     5.5030E-03     3.2361E-09  0.000E+00  1.852E-01  9.317E+02  5.394E+05  0.000E+00  0.000E+00  0.000E+00
    Material I.D.=           1  Unblocked  Area=  0.0000E+00    Blocked  Area=  0.0000E+00    Leakage      =  0.0000E+00
    Material I.D.=           2  Unblocked  Area=  0.0000E+00    Blocked  Area=  0.0000E+00    Leakage      =  0.0000E+00


      time   airbag/cv #  volume        pressure    internal energy      dm/dt in      density dm/dt out  total mass gas temp. surface area   reaction dm/dt outp dm/dt outv
 3.49966E+01       1     7.0223E+07     1.8070E-04     3.1756E+04     5.0034E-03     2.6748E-09  0.000E+00  1.878E-01  8.617E+02  5.175E+05  0.000E+00  0.000E+00  0.000E+00
    Material I.D.=           1  Unblocked  Area=  0.0000E+00    Blocked  Area=  0.0000E+00    Leakage      =  0.0000E+00
    Material I.D.=           2  Unblocked  Area=  0.0000E+00    Blocked  Area=  0.0000E+00    Leakage      =  0.0000E+00


      time   airbag/cv #  volume        pressure    internal energy      dm/dt in      density dm/dt out  total mass gas temp. surface area   reaction dm/dt outp dm/dt outv
 3.54963E+01       1     5.9417E+07     2.3193E-04     3.4487E+04     4.5037E-03     3.2012E-09  0.000E+00  1.902E-01  9.241E+02  5.403E+05  0.000E+00  0.000E+00  0.000E+00
    Material I.D.=           1  Unblocked  Area=  0.0000E+00    Blocked  Area=  0.0000E+00    Leakage      =  0.0000E+00
    Material I.D.=           2  Unblocked  Area=  0.0000E+00    Blocked  Area=  0.0000E+00    Leakage      =  0.0000E+00


      time   airbag/cv #  volume        pressure    internal energy      dm/dt in      density dm/dt out  total mass gas temp. surface area   reaction dm/dt outp dm/dt outv
 3.59959E+01       1     5.9309E+07     2.3571E-04     3.4985E+04     4.0041E-03     3.2429E-09  0.000E+00  1.923E-01  9.271E+02  5.312E+05  0.000E+00  0.000E+00  0.000E+00
    Material I.D.=           1  Unblocked  Area=  0.0000E+00    Blocked  Area=  0.0000E+00    Leakage      =  0.0000E+00
    Material I.D.=           2  Unblocked  Area=  0.0000E+00    Blocked  Area=  0.0000E+00    Leakage      =  0.0000E+00


      time   airbag/cv #  volume        pressure    internal energy      dm/dt in      density dm/dt out  total mass gas temp. surface area   reaction dm/dt outp dm/dt outv
 3.64955E+01       1     6.8853E+07     1.9365E-04     3.3368E+04     3.5045E-03     2.8206E-09  0.000E+00  1.942E-01  8.757E+02  5.501E+05  0.000E+00  0.000E+00  0.000E+00
    Material I.D.=           1  Unblocked  Area=  0.0000E+00    Blocked  Area=  0.0000E+00    Leakage      =  0.0000E+00
    Material I.D.=           2  Unblocked  Area=  0.0000E+00    Blocked  Area=  0.0000E+00    Leakage      =  0.0000E+00


      time   airbag/cv #  volume        pressure    internal energy      dm/dt in      density dm/dt out  total mass gas temp. surface area   reaction dm/dt outp dm/dt outv
 3.69952E+01       1     7.4444E+07     1.7549E-04     3.2693E+04     3.0048E-03     2.6306E-09  0.000E+00  1.958E-01  8.509E+02  5.323E+05  0.000E+00  0.000E+00  0.000E+00
    Material I.D.=           1  Unblocked  Area=  0.0000E+00    Blocked  Area=  0.0000E+00    Leakage      =  0.0000E+00
    Material I.D.=           2  Unblocked  Area=  0.0000E+00    Blocked  Area=  0.0000E+00    Leakage      =  0.0000E+00


      time   airbag/cv #  volume        pressure    internal energy      dm/dt in      density dm/dt out  total mass gas temp. surface area   reaction dm/dt outp dm/dt outv
 3.74948E+01       1     5.6271E+07     2.6195E-04     3.6887E+04     2.5052E-03     3.5046E-09  0.000E+00  1.972E-01  9.534E+02  5.066E+05  0.000E+00  0.000E+00  0.000E+00
    Material I.D.=           1  Unblocked  Area=  0.0000E+00    Blocked  Area=  0.0000E+00    Leakage      =  0.0000E+00
    Material I.D.=           2  Unblocked  Area=  0.0000E+00    Blocked  Area=  0.0000E+00    Leakage      =  0.0000E+00


      time   airbag/cv #  volume        pressure    internal energy      dm/dt in      density dm/dt out  total mass gas temp. surface area   reaction dm/dt outp dm/dt outv
 3.79944E+01       1     6.4480E+07     2.1798E-04     3.5175E+04     2.0056E-03     3.0758E-09  0.000E+00  1.983E-01  9.039E+02  5.263E+05  0.000E+00  0.000E+00  0.000E+00
    Material I.D.=           1  Unblocked  Area=  0.0000E+00    Blocked  Area=  0.0000E+00    Leakage      =  0.0000E+00
    Material I.D.=           2  Unblocked  Area=  0.0000E+00    Blocked  Area=  0.0000E+00    Leakage      =  0.0000E+00


      time   airbag/cv #  volume        pressure    internal energy      dm/dt in      density dm/dt out  total mass gas temp. surface area   reaction dm/dt outp dm/dt outv
 3.84941E+01       1     3.7764E+07     4.6412E-04     4.3862E+04     1.5059E-03     5.2750E-09  0.000E+00  1.992E-01  1.122E+03  4.360E+05  0.000E+00  0.000E+00  0.000E+00
    Material I.D.=           1  Unblocked  Area=  0.0000E+00    Blocked  Area=  0.0000E+00    Leakage      =  0.0000E+00
    Material I.D.=           2  Unblocked  Area=  0.0000E+00    Blocked  Area=  0.0000E+00    Leakage      =  0.0000E+00


      time   airbag/cv #  volume        pressure    internal energy      dm/dt in      density dm/dt out  total mass gas temp. surface area   reaction dm/dt outp dm/dt outv
 3.89937E+01       1     6.4633E+07     2.1709E-04     3.5114E+04     1.0063E-03     3.0918E-09  0.000E+00  1.998E-01  8.956E+02  6.188E+05  0.000E+00  0.000E+00  0.000E+00
    Material I.D.=           1  Unblocked  Area=  0.0000E+00    Blocked  Area=  0.0000E+00    Leakage      =  0.0000E+00
    Material I.D.=           2  Unblocked  Area=  0.0000E+00    Blocked  Area=  0.0000E+00    Leakage      =  0.0000E+00


      time   airbag/cv #  volume        pressure    internal energy      dm/dt in      density dm/dt out  total mass gas temp. surface area   reaction dm/dt outp dm/dt outv
 3.94933E+01       1     1.1159E+08     1.0875E-04     3.0370E+04     5.0668E-04     1.7941E-09  0.000E+00  2.002E-01  7.732E+02  8.584E+05  0.000E+00  0.000E+00  0.000E+00
    Material I.D.=           1  Unblocked  Area=  0.0000E+00    Blocked  Area=  0.0000E+00    Leakage      =  0.0000E+00
    Material I.D.=           2  Unblocked  Area=  0.0000E+00    Blocked  Area=  0.0000E+00    Leakage      =  0.0000E+00


      time   airbag/cv #  volume        pressure    internal energy      dm/dt in      density dm/dt out  total mass gas temp. surface area   reaction dm/dt outp dm/dt outv
 3.99930E+01       1     7.2653E+11     2.5488E-05     4.6342E+07     7.0447E-06     2.7574E-13  0.000E+00  2.003E-01  1.179E+06  1.545E+09  0.000E+00  0.000E+00  0.000E+00
    Material I.D.=           1  Unblocked  Area=  0.0000E+00    Blocked  Area=  0.0000E+00    Leakage      =  0.0000E+00
    Material I.D.=           2  Unblocked  Area=  0.0000E+00    Blocked  Area=  0.0000E+00    Leakage      =  0.0000E+00
