 LS-DYNA keyword deck by LS-PrePost                                      
                    ls-dyna smp d R13 R13.1.1_27_8731a0 date 07/28/2023


      time   airbag/cv #  volume        pressure    internal energy      dm/dt in      density dm/dt out  total mass gas temp. surface area   reaction dm/dt outp dm/dt outv
 1.10000E-07       1     2.7269E+03     1.0130E-04     6.9130E-01     5.5000E-14     1.2250E-09  0.000E+00  3.341E-06  1.055E+03  5.614E+03  0.000E+00  0.000E+00  0.000E+00
    Material I.D.=           1  Unblocked  Area=  0.0000E+00    Blocked  Area=  0.0000E+00    Leakage      =  0.0000E+00
    Material I.D.=           1  Unblocked  Area=  0.0000E+00    Blocked  Area=  0.0000E+00    Leakage      =  0.0000E+00


      time   airbag/cv #  volume        pressure    internal energy      dm/dt in      density dm/dt out  total mass gas temp. surface area   reaction dm/dt outp dm/dt outv
 4.99993E-01       1     2.7651E+03     1.0133E-04     7.0118E-01     2.5000E-07     1.2307E-09  0.000E+00  3.403E-06  1.050E+03  5.614E+03  0.000E+00  0.000E+00  0.000E+00
    Material I.D.=           1  Unblocked  Area=  0.0000E+00    Blocked  Area=  0.0000E+00    Leakage      =  0.0000E+00
    Material I.D.=           1  Unblocked  Area=  0.0000E+00    Blocked  Area=  0.0000E+00    Leakage      =  0.0000E+00


      time   airbag/cv #  volume        pressure    internal energy      dm/dt in      density dm/dt out  total mass gas temp. surface area   reaction dm/dt outp dm/dt outv
 9.99527E-01       1     2.8811E+03     1.0133E-04     7.3059E-01     4.9976E-07     1.2462E-09  0.000E+00  3.590E-06  1.037E+03  5.614E+03  0.000E+00  0.000E+00  0.000E+00
    Material I.D.=           1  Unblocked  Area=  0.0000E+00    Blocked  Area=  0.0000E+00    Leakage      =  0.0000E+00
    Material I.D.=           1  Unblocked  Area=  0.0000E+00    Blocked  Area=  0.0000E+00    Leakage      =  0.0000E+00


      time   airbag/cv #  volume        pressure    internal energy      dm/dt in      density dm/dt out  total mass gas temp. surface area   reaction dm/dt outp dm/dt outv
 1.49966E+00       1     3.0750E+03     1.0131E-04     7.7960E-01     7.4983E-07     1.2693E-09  0.000E+00  3.903E-06  1.018E+03  5.614E+03  0.000E+00  0.000E+00  0.000E+00
    Material I.D.=           1  Unblocked  Area=  0.0000E+00    Blocked  Area=  0.0000E+00    Leakage      =  0.0000E+00
    Material I.D.=           1  Unblocked  Area=  0.0000E+00    Blocked  Area=  0.0000E+00    Leakage      =  0.0000E+00


      time   airbag/cv #  volume        pressure    internal energy      dm/dt in      density dm/dt out  total mass gas temp. surface area   reaction dm/dt outp dm/dt outv
 1.99979E+00       1     3.3459E+03     1.0131E-04     8.4829E-01     9.9989E-07     1.2973E-09  0.000E+00  4.341E-06  9.961E+02  5.614E+03  0.000E+00  0.000E+00  0.000E+00
    Material I.D.=           1  Unblocked  Area=  0.0000E+00    Blocked  Area=  0.0000E+00    Leakage      =  0.0000E+00
    Material I.D.=           1  Unblocked  Area=  0.0000E+00    Blocked  Area=  0.0000E+00    Leakage      =  0.0000E+00


      time   airbag/cv #  volume        pressure    internal energy      dm/dt in      density dm/dt out  total mass gas temp. surface area   reaction dm/dt outp dm/dt outv
 2.49992E+00       1     3.6941E+03     1.0132E-04     9.3662E-01     1.2500E-06     1.3273E-09  0.000E+00  4.903E-06  9.736E+02  5.614E+03  0.000E+00  0.000E+00  0.000E+00
    Material I.D.=           1  Unblocked  Area=  0.0000E+00    Blocked  Area=  0.0000E+00    Leakage      =  0.0000E+00
    Material I.D.=           1  Unblocked  Area=  0.0000E+00    Blocked  Area=  0.0000E+00    Leakage      =  0.0000E+00


      time   airbag/cv #  volume        pressure    internal energy      dm/dt in      density dm/dt out  total mass gas temp. surface area   reaction dm/dt outp dm/dt outv
 2.99945E+00       1     4.1192E+03     1.0132E-04     1.0444E+00     1.4997E-06     1.3571E-09  0.000E+00  5.590E-06  9.523E+02  5.614E+03  0.000E+00  0.000E+00  0.000E+00
    Material I.D.=           1  Unblocked  Area=  0.0000E+00    Blocked  Area=  0.0000E+00    Leakage      =  0.0000E+00
    Material I.D.=           1  Unblocked  Area=  0.0000E+00    Blocked  Area=  0.0000E+00    Leakage      =  0.0000E+00


      time   airbag/cv #  volume        pressure    internal energy      dm/dt in      density dm/dt out  total mass gas temp. surface area   reaction dm/dt outp dm/dt outv
 3.49958E+00       1     4.6220E+03     1.0133E-04     1.1720E+00     1.7498E-06     1.3853E-09  0.000E+00  6.403E-06  9.330E+02  5.613E+03  0.000E+00  0.000E+00  0.000E+00
    Material I.D.=           1  Unblocked  Area=  0.0000E+00    Blocked  Area=  0.0000E+00    Leakage      =  0.0000E+00
    Material I.D.=           1  Unblocked  Area=  0.0000E+00    Blocked  Area=  0.0000E+00    Leakage      =  0.0000E+00


      time   airbag/cv #  volume        pressure    internal energy      dm/dt in      density dm/dt out  total mass gas temp. surface area   reaction dm/dt outp dm/dt outv
 3.99971E+00       1     5.2019E+03     1.0134E-04     1.3193E+00     1.9999E-06     1.4111E-09  0.000E+00  7.341E-06  9.160E+02  5.613E+03  0.000E+00  0.000E+00  0.000E+00
    Material I.D.=           1  Unblocked  Area=  0.0000E+00    Blocked  Area=  0.0000E+00    Leakage      =  0.0000E+00
    Material I.D.=           1  Unblocked  Area=  0.0000E+00    Blocked  Area=  0.0000E+00    Leakage      =  0.0000E+00


      time   airbag/cv #  volume        pressure    internal energy      dm/dt in      density dm/dt out  total mass gas temp. surface area   reaction dm/dt outp dm/dt outv
 4.49985E+00       1     5.8600E+03     1.0133E-04     1.4860E+00     2.2499E-06     1.4340E-09  0.000E+00  8.403E-06  9.013E+02  5.612E+03  0.000E+00  0.000E+00  0.000E+00
    Material I.D.=           1  Unblocked  Area=  0.0000E+00    Blocked  Area=  0.0000E+00    Leakage      =  0.0000E+00
    Material I.D.=           1  Unblocked  Area=  0.0000E+00    Blocked  Area=  0.0000E+00    Leakage      =  0.0000E+00


      time   airbag/cv #  volume        pressure    internal energy      dm/dt in      density dm/dt out  total mass gas temp. surface area   reaction dm/dt outp dm/dt outv
 4.99998E+00       1     6.5949E+03     1.0134E-04     1.6725E+00     2.5000E-06     1.4543E-09  0.000E+00  9.591E-06  8.888E+02  5.610E+03  0.000E+00  0.000E+00  0.000E+00
    Material I.D.=           1  Unblocked  Area=  0.0000E+00    Blocked  Area=  0.0000E+00    Leakage      =  0.0000E+00
    Material I.D.=           1  Unblocked  Area=  0.0000E+00    Blocked  Area=  0.0000E+00    Leakage      =  0.0000E+00


      time   airbag/cv #  volume        pressure    internal energy      dm/dt in      density dm/dt out  total mass gas temp. surface area   reaction dm/dt outp dm/dt outv
 5.49951E+00       1     7.4060E+03     1.0135E-04     1.8784E+00     2.7498E-06     1.4721E-09  0.000E+00  1.090E-05  8.781E+02  5.608E+03  0.000E+00  0.000E+00  0.000E+00
    Material I.D.=           1  Unblocked  Area=  0.0000E+00    Blocked  Area=  0.0000E+00    Leakage      =  0.0000E+00
    Material I.D.=           1  Unblocked  Area=  0.0000E+00    Blocked  Area=  0.0000E+00    Leakage      =  0.0000E+00


      time   airbag/cv #  volume        pressure    internal energy      dm/dt in      density dm/dt out  total mass gas temp. surface area   reaction dm/dt outp dm/dt outv
 5.99964E+00       1     8.2954E+03     1.0136E-04     2.1041E+00     2.9998E-06     1.4876E-09  0.000E+00  1.234E-05  8.690E+02  5.606E+03  0.000E+00  0.000E+00  0.000E+00
    Material I.D.=           1  Unblocked  Area=  0.0000E+00    Blocked  Area=  0.0000E+00    Leakage      =  0.0000E+00
    Material I.D.=           1  Unblocked  Area=  0.0000E+00    Blocked  Area=  0.0000E+00    Leakage      =  0.0000E+00


      time   airbag/cv #  volume        pressure    internal energy      dm/dt in      density dm/dt out  total mass gas temp. surface area   reaction dm/dt outp dm/dt outv
 6.49977E+00       1     9.2597E+03     1.0137E-04     2.3492E+00     3.2499E-06     1.5015E-09  0.000E+00  1.390E-05  8.612E+02  5.602E+03  0.000E+00  0.000E+00  0.000E+00
    Material I.D.=           1  Unblocked  Area=  0.0000E+00    Blocked  Area=  0.0000E+00    Leakage      =  0.0000E+00
    Material I.D.=           1  Unblocked  Area=  0.0000E+00    Blocked  Area=  0.0000E+00    Leakage      =  0.0000E+00


      time   airbag/cv #  volume        pressure    internal energy      dm/dt in      density dm/dt out  total mass gas temp. surface area   reaction dm/dt outp dm/dt outv
 6.99990E+00       1     1.0279E+04     1.0172E-04     2.6165E+00     3.5000E-06     1.5168E-09  0.000E+00  1.559E-05  8.554E+02  5.589E+03  0.000E+00  0.000E+00  0.000E+00
    Material I.D.=           1  Unblocked  Area=  0.0000E+00    Blocked  Area=  0.0000E+00    Leakage      =  0.0000E+00
    Material I.D.=           1  Unblocked  Area=  0.0000E+00    Blocked  Area=  0.0000E+00    Leakage      =  0.0000E+00


      time   airbag/cv #  volume        pressure    internal energy      dm/dt in      density dm/dt out  total mass gas temp. surface area   reaction dm/dt outp dm/dt outv
 7.49944E+00       1     1.1386E+04     1.0184E-04     2.9018E+00     3.7497E-06     1.5283E-09  0.000E+00  1.740E-05  8.499E+02  5.578E+03  0.000E+00  0.000E+00  0.000E+00
    Material I.D.=           1  Unblocked  Area=  0.0000E+00    Blocked  Area=  0.0000E+00    Leakage      =  0.0000E+00
    Material I.D.=           1  Unblocked  Area=  0.0000E+00    Blocked  Area=  0.0000E+00    Leakage      =  0.0000E+00


      time   airbag/cv #  volume        pressure    internal energy      dm/dt in      density dm/dt out  total mass gas temp. surface area   reaction dm/dt outp dm/dt outv
 7.99957E+00       1     1.2562E+04     1.0203E-04     3.2075E+00     3.9998E-06     1.5396E-09  0.000E+00  1.934E-05  8.453E+02  5.566E+03  0.000E+00  0.000E+00  0.000E+00
    Material I.D.=           1  Unblocked  Area=  0.0000E+00    Blocked  Area=  0.0000E+00    Leakage      =  0.0000E+00
    Material I.D.=           1  Unblocked  Area=  0.0000E+00    Blocked  Area=  0.0000E+00    Leakage      =  0.0000E+00


      time   airbag/cv #  volume        pressure    internal energy      dm/dt in      density dm/dt out  total mass gas temp. surface area   reaction dm/dt outp dm/dt outv
 8.49970E+00       1     1.3796E+04     1.0237E-04     3.5344E+00     4.2498E-06     1.5514E-09  0.000E+00  2.140E-05  8.417E+02  5.547E+03  0.000E+00  0.000E+00  0.000E+00
    Material I.D.=           1  Unblocked  Area=  0.0000E+00    Blocked  Area=  0.0000E+00    Leakage      =  0.0000E+00
    Material I.D.=           1  Unblocked  Area=  0.0000E+00    Blocked  Area=  0.0000E+00    Leakage      =  0.0000E+00


      time   airbag/cv #  volume        pressure    internal energy      dm/dt in      density dm/dt out  total mass gas temp. surface area   reaction dm/dt outp dm/dt outv
 8.99983E+00       1     1.5018E+04     1.0349E-04     3.8893E+00     4.4999E-06     1.5708E-09  0.000E+00  2.359E-05  8.403E+02  5.522E+03  0.000E+00  0.000E+00  0.000E+00
    Material I.D.=           1  Unblocked  Area=  0.0000E+00    Blocked  Area=  0.0000E+00    Leakage      =  0.0000E+00
    Material I.D.=           1  Unblocked  Area=  0.0000E+00    Blocked  Area=  0.0000E+00    Leakage      =  0.0000E+00


      time   airbag/cv #  volume        pressure    internal energy      dm/dt in      density dm/dt out  total mass gas temp. surface area   reaction dm/dt outp dm/dt outv
 9.49996E+00       1     1.6186E+04     1.0555E-04     4.2756E+00     4.7500E-06     1.6004E-09  0.000E+00  2.590E-05  8.413E+02  5.486E+03  0.000E+00  0.000E+00  0.000E+00
    Material I.D.=           1  Unblocked  Area=  0.0000E+00    Blocked  Area=  0.0000E+00    Leakage      =  0.0000E+00
    Material I.D.=           1  Unblocked  Area=  0.0000E+00    Blocked  Area=  0.0000E+00    Leakage      =  0.0000E+00


      time   airbag/cv #  volume        pressure    internal energy      dm/dt in      density dm/dt out  total mass gas temp. surface area   reaction dm/dt outp dm/dt outv
 9.99949E+00       1     1.7145E+04     1.0972E-04     4.7077E+00     4.9997E-06     1.6529E-09  0.000E+00  2.834E-05  8.467E+02  5.444E+03  0.000E+00  0.000E+00  0.000E+00
    Material I.D.=           1  Unblocked  Area=  0.0000E+00    Blocked  Area=  0.0000E+00    Leakage      =  0.0000E+00
    Material I.D.=           1  Unblocked  Area=  0.0000E+00    Blocked  Area=  0.0000E+00    Leakage      =  0.0000E+00


      time   airbag/cv #  volume        pressure    internal energy      dm/dt in      density dm/dt out  total mass gas temp. surface area   reaction dm/dt outp dm/dt outv
 1.04996E+01       1     1.7708E+04     1.1750E-04     5.2073E+00     5.2498E-06     1.7451E-09  0.000E+00  3.090E-05  8.589E+02  5.407E+03  0.000E+00  0.000E+00  0.000E+00
    Material I.D.=           1  Unblocked  Area=  0.0000E+00    Blocked  Area=  0.0000E+00    Leakage      =  0.0000E+00
    Material I.D.=           1  Unblocked  Area=  0.0000E+00    Blocked  Area=  0.0000E+00    Leakage      =  0.0000E+00


      time   airbag/cv #  volume        pressure    internal energy      dm/dt in      density dm/dt out  total mass gas temp. surface area   reaction dm/dt outp dm/dt outv
 1.09998E+01       1     1.7959E+04     1.2833E-04     5.7675E+00     5.4999E-06     1.8704E-09  0.000E+00  3.359E-05  8.751E+02  5.410E+03  0.000E+00  0.000E+00  0.000E+00
    Material I.D.=           1  Unblocked  Area=  0.0000E+00    Blocked  Area=  0.0000E+00    Leakage      =  0.0000E+00
    Material I.D.=           1  Unblocked  Area=  0.0000E+00    Blocked  Area=  0.0000E+00    Leakage      =  0.0000E+00


      time   airbag/cv #  volume        pressure    internal energy      dm/dt in      density dm/dt out  total mass gas temp. surface area   reaction dm/dt outp dm/dt outv
 1.14999E+01       1     1.8068E+04     1.4089E-04     6.3706E+00     5.7499E-06     2.0148E-09  0.000E+00  3.640E-05  8.919E+02  5.417E+03  0.000E+00  0.000E+00  0.000E+00
    Material I.D.=           1  Unblocked  Area=  0.0000E+00    Blocked  Area=  0.0000E+00    Leakage      =  0.0000E+00
    Material I.D.=           1  Unblocked  Area=  0.0000E+00    Blocked  Area=  0.0000E+00    Leakage      =  0.0000E+00


      time   airbag/cv #  volume        pressure    internal energy      dm/dt in      density dm/dt out  total mass gas temp. surface area   reaction dm/dt outp dm/dt outv
 1.19994E+01       1     1.8352E+04     1.5184E-04     6.9735E+00     5.9997E-06     2.1436E-09  0.000E+00  3.934E-05  9.035E+02  5.452E+03  0.000E+00  0.000E+00  0.000E+00
    Material I.D.=           1  Unblocked  Area=  0.0000E+00    Blocked  Area=  0.0000E+00    Leakage      =  0.0000E+00
    Material I.D.=           1  Unblocked  Area=  0.0000E+00    Blocked  Area=  0.0000E+00    Leakage      =  0.0000E+00


      time   airbag/cv #  volume        pressure    internal energy      dm/dt in      density dm/dt out  total mass gas temp. surface area   reaction dm/dt outp dm/dt outv
 1.24995E+01       1     1.8593E+04     1.6353E-04     7.6088E+00     6.2498E-06     2.2806E-09  0.000E+00  4.240E-05  9.146E+02  5.489E+03  0.000E+00  0.000E+00  0.000E+00
    Material I.D.=           1  Unblocked  Area=  0.0000E+00    Blocked  Area=  0.0000E+00    Leakage      =  0.0000E+00
    Material I.D.=           1  Unblocked  Area=  0.0000E+00    Blocked  Area=  0.0000E+00    Leakage      =  0.0000E+00


      time   airbag/cv #  volume        pressure    internal energy      dm/dt in      density dm/dt out  total mass gas temp. surface area   reaction dm/dt outp dm/dt outv
 1.29997E+01       1     1.8749E+04     1.7653E-04     8.2825E+00     6.4998E-06     2.4317E-09  0.000E+00  4.559E-05  9.260E+02  5.503E+03  0.000E+00  0.000E+00  0.000E+00
    Material I.D.=           1  Unblocked  Area=  0.0000E+00    Blocked  Area=  0.0000E+00    Leakage      =  0.0000E+00
    Material I.D.=           1  Unblocked  Area=  0.0000E+00    Blocked  Area=  0.0000E+00    Leakage      =  0.0000E+00


      time   airbag/cv #  volume        pressure    internal energy      dm/dt in      density dm/dt out  total mass gas temp. surface area   reaction dm/dt outp dm/dt outv
 1.34998E+01       1     1.8970E+04     1.8895E-04     8.9702E+00     6.7499E-06     2.5780E-09  0.000E+00  4.890E-05  9.349E+02  5.515E+03  0.000E+00  0.000E+00  0.000E+00
    Material I.D.=           1  Unblocked  Area=  0.0000E+00    Blocked  Area=  0.0000E+00    Leakage      =  0.0000E+00
    Material I.D.=           1  Unblocked  Area=  0.0000E+00    Blocked  Area=  0.0000E+00    Leakage      =  0.0000E+00


      time   airbag/cv #  volume        pressure    internal energy      dm/dt in      density dm/dt out  total mass gas temp. surface area   reaction dm/dt outp dm/dt outv
 1.39999E+01       1     1.9094E+04     2.0303E-04     9.7015E+00     7.0000E-06     2.7413E-09  0.000E+00  5.234E-05  9.447E+02  5.520E+03  0.000E+00  0.000E+00  0.000E+00
    Material I.D.=           1  Unblocked  Area=  0.0000E+00    Blocked  Area=  0.0000E+00    Leakage      =  0.0000E+00
    Material I.D.=           1  Unblocked  Area=  0.0000E+00    Blocked  Area=  0.0000E+00    Leakage      =  0.0000E+00


      time   airbag/cv #  volume        pressure    internal energy      dm/dt in      density dm/dt out  total mass gas temp. surface area   reaction dm/dt outp dm/dt outv
 1.44995E+01       1     1.9369E+04     2.1509E-04     1.0426E+01     7.2497E-06     2.8862E-09  0.000E+00  5.590E-05  9.506E+02  5.539E+03  0.000E+00  0.000E+00  0.000E+00
    Material I.D.=           1  Unblocked  Area=  0.0000E+00    Blocked  Area=  0.0000E+00    Leakage      =  0.0000E+00
    Material I.D.=           1  Unblocked  Area=  0.0000E+00    Blocked  Area=  0.0000E+00    Leakage      =  0.0000E+00


      time   airbag/cv #  volume        pressure    internal energy      dm/dt in      density dm/dt out  total mass gas temp. surface area   reaction dm/dt outp dm/dt outv
 1.49996E+01       1     1.9633E+04     2.2750E-04     1.1178E+01     7.4998E-06     3.0351E-09  0.000E+00  5.959E-05  9.561E+02  5.565E+03  0.000E+00  0.000E+00  0.000E+00
    Material I.D.=           1  Unblocked  Area=  0.0000E+00    Blocked  Area=  0.0000E+00    Leakage      =  0.0000E+00
    Material I.D.=           1  Unblocked  Area=  0.0000E+00    Blocked  Area=  0.0000E+00    Leakage      =  0.0000E+00


      time   airbag/cv #  volume        pressure    internal energy      dm/dt in      density dm/dt out  total mass gas temp. surface area   reaction dm/dt outp dm/dt outv
 1.54997E+01       1     1.9748E+04     2.4260E-04     1.1989E+01     7.7499E-06     3.2106E-09  0.000E+00  6.340E-05  9.638E+02  5.584E+03  0.000E+00  0.000E+00  0.000E+00
    Material I.D.=           1  Unblocked  Area=  0.0000E+00    Blocked  Area=  0.0000E+00    Leakage      =  0.0000E+00
    Material I.D.=           1  Unblocked  Area=  0.0000E+00    Blocked  Area=  0.0000E+00    Leakage      =  0.0000E+00


      time   airbag/cv #  volume        pressure    internal energy      dm/dt in      density dm/dt out  total mass gas temp. surface area   reaction dm/dt outp dm/dt outv
 1.59999E+01       1     1.9980E+04     2.5594E-04     1.2797E+01     7.9999E-06     3.3705E-09  0.000E+00  6.734E-05  9.685E+02  5.596E+03  0.000E+00  0.000E+00  0.000E+00
    Material I.D.=           1  Unblocked  Area=  0.0000E+00    Blocked  Area=  0.0000E+00    Leakage      =  0.0000E+00
    Material I.D.=           1  Unblocked  Area=  0.0000E+00    Blocked  Area=  0.0000E+00    Leakage      =  0.0000E+00


      time   airbag/cv #  volume        pressure    internal energy      dm/dt in      density dm/dt out  total mass gas temp. surface area   reaction dm/dt outp dm/dt outv
 1.65000E+01       1     2.0415E+04     2.6573E-04     1.3576E+01     8.2500E-06     3.4977E-09  0.000E+00  7.141E-05  9.690E+02  5.581E+03  0.000E+00  0.000E+00  0.000E+00
    Material I.D.=           1  Unblocked  Area=  0.0000E+00    Blocked  Area=  0.0000E+00    Leakage      =  0.0000E+00
    Material I.D.=           1  Unblocked  Area=  0.0000E+00    Blocked  Area=  0.0000E+00    Leakage      =  0.0000E+00


      time   airbag/cv #  volume        pressure    internal energy      dm/dt in      density dm/dt out  total mass gas temp. surface area   reaction dm/dt outp dm/dt outv
 1.69995E+01       1     2.1116E+04     2.7073E-04     1.4306E+01     8.4998E-06     3.5798E-09  0.000E+00  7.559E-05  9.646E+02  5.575E+03  0.000E+00  0.000E+00  0.000E+00
    Material I.D.=           1  Unblocked  Area=  0.0000E+00    Blocked  Area=  0.0000E+00    Leakage      =  0.0000E+00
    Material I.D.=           1  Unblocked  Area=  0.0000E+00    Blocked  Area=  0.0000E+00    Leakage      =  0.0000E+00


      time   airbag/cv #  volume        pressure    internal energy      dm/dt in      density dm/dt out  total mass gas temp. surface area   reaction dm/dt outp dm/dt outv
 1.74997E+01       1     2.3156E+04     2.5394E-04     1.4716E+01     8.7498E-06     3.4506E-09  0.000E+00  7.990E-05  9.387E+02  5.562E+03  0.000E+00  0.000E+00  0.000E+00
    Material I.D.=           1  Unblocked  Area=  0.0000E+00    Blocked  Area=  0.0000E+00    Leakage      =  0.0000E+00
    Material I.D.=           1  Unblocked  Area=  0.0000E+00    Blocked  Area=  0.0000E+00    Leakage      =  0.0000E+00


      time   airbag/cv #  volume        pressure    internal energy      dm/dt in      density dm/dt out  total mass gas temp. surface area   reaction dm/dt outp dm/dt outv
 1.79998E+01       1     2.5604E+04     2.3578E-04     1.5108E+01     8.9999E-06     3.2940E-09  0.000E+00  8.434E-05  9.130E+02  5.553E+03  0.000E+00  0.000E+00  0.000E+00
    Material I.D.=           1  Unblocked  Area=  0.0000E+00    Blocked  Area=  0.0000E+00    Leakage      =  0.0000E+00
    Material I.D.=           1  Unblocked  Area=  0.0000E+00    Blocked  Area=  0.0000E+00    Leakage      =  0.0000E+00


      time   airbag/cv #  volume        pressure    internal energy      dm/dt in      density dm/dt out  total mass gas temp. surface area   reaction dm/dt outp dm/dt outv
 1.84999E+01       1     2.5936E+04     2.4692E-04     1.6026E+01     9.2500E-06     3.4279E-09  0.000E+00  8.891E-05  9.188E+02  5.564E+03  0.000E+00  0.000E+00  0.000E+00
    Material I.D.=           1  Unblocked  Area=  0.0000E+00    Blocked  Area=  0.0000E+00    Leakage      =  0.0000E+00
    Material I.D.=           1  Unblocked  Area=  0.0000E+00    Blocked  Area=  0.0000E+00    Leakage      =  0.0000E+00


      time   airbag/cv #  volume        pressure    internal energy      dm/dt in      density dm/dt out  total mass gas temp. surface area   reaction dm/dt outp dm/dt outv
 1.89995E+01       1     2.6694E+04     2.5249E-04     1.6867E+01     9.4997E-06     3.5060E-09  0.000E+00  9.359E-05  9.186E+02  5.597E+03  0.000E+00  0.000E+00  0.000E+00
    Material I.D.=           1  Unblocked  Area=  0.0000E+00    Blocked  Area=  0.0000E+00    Leakage      =  0.0000E+00
    Material I.D.=           1  Unblocked  Area=  0.0000E+00    Blocked  Area=  0.0000E+00    Leakage      =  0.0000E+00


      time   airbag/cv #  volume        pressure    internal energy      dm/dt in      density dm/dt out  total mass gas temp. surface area   reaction dm/dt outp dm/dt outv
 1.94996E+01       1     2.7086E+04     2.6296E-04     1.7824E+01     9.7498E-06     3.6330E-09  0.000E+00  9.840E-05  9.232E+02  5.582E+03  0.000E+00  0.000E+00  0.000E+00
    Material I.D.=           1  Unblocked  Area=  0.0000E+00    Blocked  Area=  0.0000E+00    Leakage      =  0.0000E+00
    Material I.D.=           1  Unblocked  Area=  0.0000E+00    Blocked  Area=  0.0000E+00    Leakage      =  0.0000E+00


      time   airbag/cv #  volume        pressure    internal energy      dm/dt in      density dm/dt out  total mass gas temp. surface area   reaction dm/dt outp dm/dt outv
 1.99997E+01       1     2.7303E+04     2.7588E-04     1.8851E+01     9.9999E-06     3.7849E-09  0.000E+00  1.033E-04  9.297E+02  5.628E+03  0.000E+00  0.000E+00  0.000E+00
    Material I.D.=           1  Unblocked  Area=  0.0000E+00    Blocked  Area=  0.0000E+00    Leakage      =  0.0000E+00
    Material I.D.=           1  Unblocked  Area=  0.0000E+00    Blocked  Area=  0.0000E+00    Leakage      =  0.0000E+00


      time   airbag/cv #  volume        pressure    internal energy      dm/dt in      density dm/dt out  total mass gas temp. surface area   reaction dm/dt outp dm/dt outv
 2.04999E+01       1     2.7214E+04     2.9290E-04     1.9948E+01     9.5001E-06     3.9765E-09  0.000E+00  1.082E-04  9.395E+02  5.663E+03  0.000E+00  0.000E+00  0.000E+00
    Material I.D.=           1  Unblocked  Area=  0.0000E+00    Blocked  Area=  0.0000E+00    Leakage      =  0.0000E+00
    Material I.D.=           1  Unblocked  Area=  0.0000E+00    Blocked  Area=  0.0000E+00    Leakage      =  0.0000E+00


      time   airbag/cv #  volume        pressure    internal energy      dm/dt in      density dm/dt out  total mass gas temp. surface area   reaction dm/dt outp dm/dt outv
 2.10000E+01       1     2.7471E+04     3.0382E-04     2.0887E+01     9.0000E-06     4.1078E-09  0.000E+00  1.128E-04  9.434E+02  5.666E+03  0.000E+00  0.000E+00  0.000E+00
    Material I.D.=           1  Unblocked  Area=  0.0000E+00    Blocked  Area=  0.0000E+00    Leakage      =  0.0000E+00
    Material I.D.=           1  Unblocked  Area=  0.0000E+00    Blocked  Area=  0.0000E+00    Leakage      =  0.0000E+00


      time   airbag/cv #  volume        pressure    internal energy      dm/dt in      density dm/dt out  total mass gas temp. surface area   reaction dm/dt outp dm/dt outv
 2.14995E+01       1     2.8456E+04     3.0261E-04     2.1550E+01     8.5005E-06     4.1191E-09  0.000E+00  1.172E-04  9.370E+02  5.648E+03  0.000E+00  0.000E+00  0.000E+00
    Material I.D.=           1  Unblocked  Area=  0.0000E+00    Blocked  Area=  0.0000E+00    Leakage      =  0.0000E+00
    Material I.D.=           1  Unblocked  Area=  0.0000E+00    Blocked  Area=  0.0000E+00    Leakage      =  0.0000E+00


      time   airbag/cv #  volume        pressure    internal energy      dm/dt in      density dm/dt out  total mass gas temp. surface area   reaction dm/dt outp dm/dt outv
 2.19996E+01       1     2.8627E+04     3.1270E-04     2.2402E+01     8.0004E-06     4.2386E-09  0.000E+00  1.213E-04  9.410E+02  5.648E+03  0.000E+00  0.000E+00  0.000E+00
    Material I.D.=           1  Unblocked  Area=  0.0000E+00    Blocked  Area=  0.0000E+00    Leakage      =  0.0000E+00
    Material I.D.=           1  Unblocked  Area=  0.0000E+00    Blocked  Area=  0.0000E+00    Leakage      =  0.0000E+00


      time   airbag/cv #  volume        pressure    internal energy      dm/dt in      density dm/dt out  total mass gas temp. surface area   reaction dm/dt outp dm/dt outv
 2.24998E+01       1     2.8848E+04     3.2114E-04     2.3184E+01     7.5002E-06     4.3405E-09  0.000E+00  1.252E-04  9.437E+02  5.670E+03  0.000E+00  0.000E+00  0.000E+00
    Material I.D.=           1  Unblocked  Area=  0.0000E+00    Blocked  Area=  0.0000E+00    Leakage      =  0.0000E+00
    Material I.D.=           1  Unblocked  Area=  0.0000E+00    Blocked  Area=  0.0000E+00    Leakage      =  0.0000E+00


      time   airbag/cv #  volume        pressure    internal energy      dm/dt in      density dm/dt out  total mass gas temp. surface area   reaction dm/dt outp dm/dt outv
 2.29999E+01       1     2.8732E+04     3.3401E-04     2.4016E+01     7.0001E-06     4.4842E-09  0.000E+00  1.288E-04  9.501E+02  5.674E+03  0.000E+00  0.000E+00  0.000E+00
    Material I.D.=           1  Unblocked  Area=  0.0000E+00    Blocked  Area=  0.0000E+00    Leakage      =  0.0000E+00
    Material I.D.=           1  Unblocked  Area=  0.0000E+00    Blocked  Area=  0.0000E+00    Leakage      =  0.0000E+00


      time   airbag/cv #  volume        pressure    internal energy      dm/dt in      density dm/dt out  total mass gas temp. surface area   reaction dm/dt outp dm/dt outv
 2.34994E+01       1     2.9102E+04     3.3821E-04     2.4632E+01     6.5006E-06     4.5431E-09  0.000E+00  1.322E-04  9.496E+02  5.679E+03  0.000E+00  0.000E+00  0.000E+00
    Material I.D.=           1  Unblocked  Area=  0.0000E+00    Blocked  Area=  0.0000E+00    Leakage      =  0.0000E+00
    Material I.D.=           1  Unblocked  Area=  0.0000E+00    Blocked  Area=  0.0000E+00    Leakage      =  0.0000E+00


      time   airbag/cv #  volume        pressure    internal energy      dm/dt in      density dm/dt out  total mass gas temp. surface area   reaction dm/dt outp dm/dt outv
 2.39996E+01       1     2.9203E+04     3.4597E-04     2.5284E+01     6.0004E-06     4.6344E-09  0.000E+00  1.353E-04  9.522E+02  5.686E+03  0.000E+00  0.000E+00  0.000E+00
    Material I.D.=           1  Unblocked  Area=  0.0000E+00    Blocked  Area=  0.0000E+00    Leakage      =  0.0000E+00
    Material I.D.=           1  Unblocked  Area=  0.0000E+00    Blocked  Area=  0.0000E+00    Leakage      =  0.0000E+00


      time   airbag/cv #  volume        pressure    internal energy      dm/dt in      density dm/dt out  total mass gas temp. surface area   reaction dm/dt outp dm/dt outv
 2.44997E+01       1     2.9131E+04     3.5584E-04     2.5941E+01     5.5003E-06     4.7447E-09  0.000E+00  1.382E-04  9.566E+02  5.696E+03  0.000E+00  0.000E+00  0.000E+00
    Material I.D.=           1  Unblocked  Area=  0.0000E+00    Blocked  Area=  0.0000E+00    Leakage      =  0.0000E+00
    Material I.D.=           1  Unblocked  Area=  0.0000E+00    Blocked  Area=  0.0000E+00    Leakage      =  0.0000E+00


      time   airbag/cv #  volume        pressure    internal energy      dm/dt in      density dm/dt out  total mass gas temp. surface area   reaction dm/dt outp dm/dt outv
 2.49998E+01       1     2.9285E+04     3.6110E-04     2.6464E+01     5.0002E-06     4.8094E-09  0.000E+00  1.408E-04  9.577E+02  5.704E+03  0.000E+00  0.000E+00  0.000E+00
    Material I.D.=           1  Unblocked  Area=  0.0000E+00    Blocked  Area=  0.0000E+00    Leakage      =  0.0000E+00
    Material I.D.=           1  Unblocked  Area=  0.0000E+00    Blocked  Area=  0.0000E+00    Leakage      =  0.0000E+00


      time   airbag/cv #  volume        pressure    internal energy      dm/dt in      density dm/dt out  total mass gas temp. surface area   reaction dm/dt outp dm/dt outv
 2.55000E+01       1     2.9323E+04     3.6754E-04     2.6971E+01     4.5000E-06     4.8841E-09  0.000E+00  1.432E-04  9.599E+02  5.701E+03  0.000E+00  0.000E+00  0.000E+00
    Material I.D.=           1  Unblocked  Area=  0.0000E+00    Blocked  Area=  0.0000E+00    Leakage      =  0.0000E+00
    Material I.D.=           1  Unblocked  Area=  0.0000E+00    Blocked  Area=  0.0000E+00    Leakage      =  0.0000E+00


      time   airbag/cv #  volume        pressure    internal energy      dm/dt in      density dm/dt out  total mass gas temp. surface area   reaction dm/dt outp dm/dt outv
 2.59995E+01       1     2.9308E+04     3.7416E-04     2.7442E+01     4.0005E-06     4.9590E-09  0.000E+00  1.453E-04  9.624E+02  5.710E+03  0.000E+00  0.000E+00  0.000E+00
    Material I.D.=           1  Unblocked  Area=  0.0000E+00    Blocked  Area=  0.0000E+00    Leakage      =  0.0000E+00
    Material I.D.=           1  Unblocked  Area=  0.0000E+00    Blocked  Area=  0.0000E+00    Leakage      =  0.0000E+00


      time   airbag/cv #  volume        pressure    internal energy      dm/dt in      density dm/dt out  total mass gas temp. surface area   reaction dm/dt outp dm/dt outv
 2.64996E+01       1     2.9542E+04     3.7559E-04     2.7767E+01     3.5004E-06     4.9832E-09  0.000E+00  1.472E-04  9.614E+02  5.708E+03  0.000E+00  0.000E+00  0.000E+00
    Material I.D.=           1  Unblocked  Area=  0.0000E+00    Blocked  Area=  0.0000E+00    Leakage      =  0.0000E+00
    Material I.D.=           1  Unblocked  Area=  0.0000E+00    Blocked  Area=  0.0000E+00    Leakage      =  0.0000E+00


      time   airbag/cv #  volume        pressure    internal energy      dm/dt in      density dm/dt out  total mass gas temp. surface area   reaction dm/dt outp dm/dt outv
 2.69998E+01       1     2.9712E+04     3.7738E-04     2.8060E+01     3.0002E-06     5.0095E-09  0.000E+00  1.488E-04  9.609E+02  5.706E+03  0.000E+00  0.000E+00  0.000E+00
    Material I.D.=           1  Unblocked  Area=  0.0000E+00    Blocked  Area=  0.0000E+00    Leakage      =  0.0000E+00
    Material I.D.=           1  Unblocked  Area=  0.0000E+00    Blocked  Area=  0.0000E+00    Leakage      =  0.0000E+00


      time   airbag/cv #  volume        pressure    internal energy      dm/dt in      density dm/dt out  total mass gas temp. surface area   reaction dm/dt outp dm/dt outv
 2.74999E+01       1     2.9856E+04     3.7886E-04     2.8307E+01     2.5001E-06     5.0313E-09  0.000E+00  1.502E-04  9.605E+02  5.696E+03  0.000E+00  0.000E+00  0.000E+00
    Material I.D.=           1  Unblocked  Area=  0.0000E+00    Blocked  Area=  0.0000E+00    Leakage      =  0.0000E+00
    Material I.D.=           1  Unblocked  Area=  0.0000E+00    Blocked  Area=  0.0000E+00    Leakage      =  0.0000E+00


      time   airbag/cv #  volume        pressure    internal energy      dm/dt in      density dm/dt out  total mass gas temp. surface area   reaction dm/dt outp dm/dt outv
 2.79994E+01       1     2.9859E+04     3.8211E-04     2.8553E+01     2.0006E-06     5.0684E-09  0.000E+00  1.513E-04  9.616E+02  5.704E+03  0.000E+00  0.000E+00  0.000E+00
    Material I.D.=           1  Unblocked  Area=  0.0000E+00    Blocked  Area=  0.0000E+00    Leakage      =  0.0000E+00
    Material I.D.=           1  Unblocked  Area=  0.0000E+00    Blocked  Area=  0.0000E+00    Leakage      =  0.0000E+00


      time   airbag/cv #  volume        pressure    internal energy      dm/dt in      density dm/dt out  total mass gas temp. surface area   reaction dm/dt outp dm/dt outv
 2.84996E+01       1     2.9613E+04     3.8917E-04     2.8841E+01     1.5004E-06     5.1401E-09  0.000E+00  1.522E-04  9.657E+02  5.725E+03  0.000E+00  0.000E+00  0.000E+00
    Material I.D.=           1  Unblocked  Area=  0.0000E+00    Blocked  Area=  0.0000E+00    Leakage      =  0.0000E+00
    Material I.D.=           1  Unblocked  Area=  0.0000E+00    Blocked  Area=  0.0000E+00    Leakage      =  0.0000E+00


      time   airbag/cv #  volume        pressure    internal energy      dm/dt in      density dm/dt out  total mass gas temp. surface area   reaction dm/dt outp dm/dt outv
 2.89997E+01       1     2.9872E+04     3.8629E-04     2.8878E+01     1.0003E-06     5.1166E-09  0.000E+00  1.528E-04  9.630E+02  5.706E+03  0.000E+00  0.000E+00  0.000E+00
    Material I.D.=           1  Unblocked  Area=  0.0000E+00    Blocked  Area=  0.0000E+00    Leakage      =  0.0000E+00
    Material I.D.=           1  Unblocked  Area=  0.0000E+00    Blocked  Area=  0.0000E+00    Leakage      =  0.0000E+00


      time   airbag/cv #  volume        pressure    internal energy      dm/dt in      density dm/dt out  total mass gas temp. surface area   reaction dm/dt outp dm/dt outv
 2.94998E+01       1     2.9760E+04     3.8943E-04     2.9003E+01     5.0018E-07     5.1484E-09  0.000E+00  1.532E-04  9.648E+02  5.713E+03  0.000E+00  0.000E+00  0.000E+00
    Material I.D.=           1  Unblocked  Area=  0.0000E+00    Blocked  Area=  0.0000E+00    Leakage      =  0.0000E+00
    Material I.D.=           1  Unblocked  Area=  0.0000E+00    Blocked  Area=  0.0000E+00    Leakage      =  0.0000E+00


      time   airbag/cv #  volume        pressure    internal energy      dm/dt in      density dm/dt out  total mass gas temp. surface area   reaction dm/dt outp dm/dt outv
 2.99999E+01       1     3.0011E+04     3.8524E-04     2.8933E+01     5.2627E-11     5.1094E-09  0.000E+00  1.533E-04  9.617E+02  5.684E+03  0.000E+00  0.000E+00  0.000E+00
    Material I.D.=           1  Unblocked  Area=  0.0000E+00    Blocked  Area=  0.0000E+00    Leakage      =  0.0000E+00
    Material I.D.=           1  Unblocked  Area=  0.0000E+00    Blocked  Area=  0.0000E+00    Leakage      =  0.0000E+00


      time   airbag/cv #  volume        pressure    internal energy      dm/dt in      density dm/dt out  total mass gas temp. surface area   reaction dm/dt outp dm/dt outv
 3.04995E+01       1     3.0036E+04     3.8480E-04     2.8924E+01     0.0000E+00     5.1053E-09  0.000E+00  1.533E-04  9.614E+02  5.704E+03  0.000E+00  0.000E+00  0.000E+00
    Material I.D.=           1  Unblocked  Area=  0.0000E+00    Blocked  Area=  0.0000E+00    Leakage      =  0.0000E+00
    Material I.D.=           1  Unblocked  Area=  0.0000E+00    Blocked  Area=  0.0000E+00    Leakage      =  0.0000E+00


      time   airbag/cv #  volume        pressure    internal energy      dm/dt in      density dm/dt out  total mass gas temp. surface area   reaction dm/dt outp dm/dt outv
 3.09996E+01       1     3.0031E+04     3.8488E-04     2.8926E+01     0.0000E+00     5.1060E-09  0.000E+00  1.533E-04  9.615E+02  5.689E+03  0.000E+00  0.000E+00  0.000E+00
    Material I.D.=           1  Unblocked  Area=  0.0000E+00    Blocked  Area=  0.0000E+00    Leakage      =  0.0000E+00
    Material I.D.=           1  Unblocked  Area=  0.0000E+00    Blocked  Area=  0.0000E+00    Leakage      =  0.0000E+00


      time   airbag/cv #  volume        pressure    internal energy      dm/dt in      density dm/dt out  total mass gas temp. surface area   reaction dm/dt outp dm/dt outv
 3.14997E+01       1     3.0253E+04     3.8093E-04     2.8841E+01     0.0000E+00     5.0685E-09  0.000E+00  1.533E-04  9.586E+02  5.693E+03  0.000E+00  0.000E+00  0.000E+00
    Material I.D.=           1  Unblocked  Area=  0.0000E+00    Blocked  Area=  0.0000E+00    Leakage      =  0.0000E+00
    Material I.D.=           1  Unblocked  Area=  0.0000E+00    Blocked  Area=  0.0000E+00    Leakage      =  0.0000E+00


      time   airbag/cv #  volume        pressure    internal energy      dm/dt in      density dm/dt out  total mass gas temp. surface area   reaction dm/dt outp dm/dt outv
 3.19999E+01       1     3.0305E+04     3.8002E-04     2.8821E+01     0.0000E+00     5.0599E-09  0.000E+00  1.533E-04  9.580E+02  5.696E+03  0.000E+00  0.000E+00  0.000E+00
    Material I.D.=           1  Unblocked  Area=  0.0000E+00    Blocked  Area=  0.0000E+00    Leakage      =  0.0000E+00
    Material I.D.=           1  Unblocked  Area=  0.0000E+00    Blocked  Area=  0.0000E+00    Leakage      =  0.0000E+00


      time   airbag/cv #  volume        pressure    internal energy      dm/dt in      density dm/dt out  total mass gas temp. surface area   reaction dm/dt outp dm/dt outv
 3.24994E+01       1     3.0204E+04     3.8181E-04     2.8860E+01     0.0000E+00     5.0768E-09  0.000E+00  1.533E-04  9.593E+02  5.702E+03  0.000E+00  0.000E+00  0.000E+00
    Material I.D.=           1  Unblocked  Area=  0.0000E+00    Blocked  Area=  0.0000E+00    Leakage      =  0.0000E+00
    Material I.D.=           1  Unblocked  Area=  0.0000E+00    Blocked  Area=  0.0000E+00    Leakage      =  0.0000E+00


      time   airbag/cv #  volume        pressure    internal energy      dm/dt in      density dm/dt out  total mass gas temp. surface area   reaction dm/dt outp dm/dt outv
 3.29995E+01       1     3.0152E+04     3.8273E-04     2.8879E+01     0.0000E+00     5.0856E-09  0.000E+00  1.533E-04  9.599E+02  5.700E+03  0.000E+00  0.000E+00  0.000E+00
    Material I.D.=           1  Unblocked  Area=  0.0000E+00    Blocked  Area=  0.0000E+00    Leakage      =  0.0000E+00
    Material I.D.=           1  Unblocked  Area=  0.0000E+00    Blocked  Area=  0.0000E+00    Leakage      =  0.0000E+00


      time   airbag/cv #  volume        pressure    internal energy      dm/dt in      density dm/dt out  total mass gas temp. surface area   reaction dm/dt outp dm/dt outv
 3.34997E+01       1     2.9969E+04     3.8600E-04     2.8950E+01     0.0000E+00     5.1166E-09  0.000E+00  1.533E-04  9.623E+02  5.676E+03  0.000E+00  0.000E+00  0.000E+00
    Material I.D.=           1  Unblocked  Area=  0.0000E+00    Blocked  Area=  0.0000E+00    Leakage      =  0.0000E+00
    Material I.D.=           1  Unblocked  Area=  0.0000E+00    Blocked  Area=  0.0000E+00    Leakage      =  0.0000E+00


      time   airbag/cv #  volume        pressure    internal energy      dm/dt in      density dm/dt out  total mass gas temp. surface area   reaction dm/dt outp dm/dt outv
 3.39998E+01       1     2.9632E+04     3.9215E-04     2.9081E+01     0.0000E+00     5.1748E-09  0.000E+00  1.533E-04  9.666E+02  5.738E+03  0.000E+00  0.000E+00  0.000E+00
    Material I.D.=           1  Unblocked  Area=  0.0000E+00    Blocked  Area=  0.0000E+00    Leakage      =  0.0000E+00
    Material I.D.=           1  Unblocked  Area=  0.0000E+00    Blocked  Area=  0.0000E+00    Leakage      =  0.0000E+00


      time   airbag/cv #  volume        pressure    internal energy      dm/dt in      density dm/dt out  total mass gas temp. surface area   reaction dm/dt outp dm/dt outv
 3.44999E+01       1     2.9624E+04     3.9231E-04     2.9084E+01     0.0000E+00     5.1762E-09  0.000E+00  1.533E-04  9.667E+02  5.737E+03  0.000E+00  0.000E+00  0.000E+00
    Material I.D.=           1  Unblocked  Area=  0.0000E+00    Blocked  Area=  0.0000E+00    Leakage      =  0.0000E+00
    Material I.D.=           1  Unblocked  Area=  0.0000E+00    Blocked  Area=  0.0000E+00    Leakage      =  0.0000E+00


      time   airbag/cv #  volume        pressure    internal energy      dm/dt in      density dm/dt out  total mass gas temp. surface area   reaction dm/dt outp dm/dt outv
 3.49995E+01       1     2.9662E+04     3.9161E-04     2.9069E+01     0.0000E+00     5.1697E-09  0.000E+00  1.533E-04  9.662E+02  5.707E+03  0.000E+00  0.000E+00  0.000E+00
    Material I.D.=           1  Unblocked  Area=  0.0000E+00    Blocked  Area=  0.0000E+00    Leakage      =  0.0000E+00
    Material I.D.=           1  Unblocked  Area=  0.0000E+00    Blocked  Area=  0.0000E+00    Leakage      =  0.0000E+00


      time   airbag/cv #  volume        pressure    internal energy      dm/dt in      density dm/dt out  total mass gas temp. surface area   reaction dm/dt outp dm/dt outv
 3.54996E+01       1     2.9924E+04     3.8681E-04     2.8967E+01     0.0000E+00     5.1243E-09  0.000E+00  1.533E-04  9.628E+02  5.732E+03  0.000E+00  0.000E+00  0.000E+00
    Material I.D.=           1  Unblocked  Area=  0.0000E+00    Blocked  Area=  0.0000E+00    Leakage      =  0.0000E+00
    Material I.D.=           1  Unblocked  Area=  0.0000E+00    Blocked  Area=  0.0000E+00    Leakage      =  0.0000E+00


      time   airbag/cv #  volume        pressure    internal energy      dm/dt in      density dm/dt out  total mass gas temp. surface area   reaction dm/dt outp dm/dt outv
 3.59997E+01       1     3.0112E+04     3.8343E-04     2.8895E+01     0.0000E+00     5.0923E-09  0.000E+00  1.533E-04  9.604E+02  5.709E+03  0.000E+00  0.000E+00  0.000E+00
    Material I.D.=           1  Unblocked  Area=  0.0000E+00    Blocked  Area=  0.0000E+00    Leakage      =  0.0000E+00
    Material I.D.=           1  Unblocked  Area=  0.0000E+00    Blocked  Area=  0.0000E+00    Leakage      =  0.0000E+00


      time   airbag/cv #  volume        pressure    internal energy      dm/dt in      density dm/dt out  total mass gas temp. surface area   reaction dm/dt outp dm/dt outv
 3.64999E+01       1     3.0080E+04     3.8401E-04     2.8907E+01     0.0000E+00     5.0978E-09  0.000E+00  1.533E-04  9.608E+02  5.687E+03  0.000E+00  0.000E+00  0.000E+00
    Material I.D.=           1  Unblocked  Area=  0.0000E+00    Blocked  Area=  0.0000E+00    Leakage      =  0.0000E+00
    Material I.D.=           1  Unblocked  Area=  0.0000E+00    Blocked  Area=  0.0000E+00    Leakage      =  0.0000E+00


      time   airbag/cv #  volume        pressure    internal energy      dm/dt in      density dm/dt out  total mass gas temp. surface area   reaction dm/dt outp dm/dt outv
 3.70000E+01       1     3.0273E+04     3.8059E-04     2.8833E+01     0.0000E+00     5.0653E-09  0.000E+00  1.533E-04  9.584E+02  5.703E+03  0.000E+00  0.000E+00  0.000E+00
    Material I.D.=           1  Unblocked  Area=  0.0000E+00    Blocked  Area=  0.0000E+00    Leakage      =  0.0000E+00
    Material I.D.=           1  Unblocked  Area=  0.0000E+00    Blocked  Area=  0.0000E+00    Leakage      =  0.0000E+00


      time   airbag/cv #  volume        pressure    internal energy      dm/dt in      density dm/dt out  total mass gas temp. surface area   reaction dm/dt outp dm/dt outv
 3.74995E+01       1     2.9405E+04     3.9640E-04     2.9170E+01     0.0000E+00     5.2147E-09  0.000E+00  1.533E-04  9.696E+02  5.743E+03  0.000E+00  0.000E+00  0.000E+00
    Material I.D.=           1  Unblocked  Area=  0.0000E+00    Blocked  Area=  0.0000E+00    Leakage      =  0.0000E+00
    Material I.D.=           1  Unblocked  Area=  0.0000E+00    Blocked  Area=  0.0000E+00    Leakage      =  0.0000E+00


      time   airbag/cv #  volume        pressure    internal energy      dm/dt in      density dm/dt out  total mass gas temp. surface area   reaction dm/dt outp dm/dt outv
 3.79997E+01       1     2.9902E+04     3.8721E-04     2.8976E+01     0.0000E+00     5.1281E-09  0.000E+00  1.533E-04  9.631E+02  5.728E+03  0.000E+00  0.000E+00  0.000E+00
    Material I.D.=           1  Unblocked  Area=  0.0000E+00    Blocked  Area=  0.0000E+00    Leakage      =  0.0000E+00
    Material I.D.=           1  Unblocked  Area=  0.0000E+00    Blocked  Area=  0.0000E+00    Leakage      =  0.0000E+00


      time   airbag/cv #  volume        pressure    internal energy      dm/dt in      density dm/dt out  total mass gas temp. surface area   reaction dm/dt outp dm/dt outv
 3.84998E+01       1     2.9690E+04     3.9108E-04     2.9058E+01     0.0000E+00     5.1647E-09  0.000E+00  1.533E-04  9.659E+02  5.745E+03  0.000E+00  0.000E+00  0.000E+00
    Material I.D.=           1  Unblocked  Area=  0.0000E+00    Blocked  Area=  0.0000E+00    Leakage      =  0.0000E+00
    Material I.D.=           1  Unblocked  Area=  0.0000E+00    Blocked  Area=  0.0000E+00    Leakage      =  0.0000E+00


      time   airbag/cv #  volume        pressure    internal energy      dm/dt in      density dm/dt out  total mass gas temp. surface area   reaction dm/dt outp dm/dt outv
 3.89999E+01       1     3.0099E+04     3.8367E-04     2.8900E+01     0.0000E+00     5.0945E-09  0.000E+00  1.533E-04  9.606E+02  5.707E+03  0.000E+00  0.000E+00  0.000E+00
    Material I.D.=           1  Unblocked  Area=  0.0000E+00    Blocked  Area=  0.0000E+00    Leakage      =  0.0000E+00
    Material I.D.=           1  Unblocked  Area=  0.0000E+00    Blocked  Area=  0.0000E+00    Leakage      =  0.0000E+00


      time   airbag/cv #  volume        pressure    internal energy      dm/dt in      density dm/dt out  total mass gas temp. surface area   reaction dm/dt outp dm/dt outv
 3.94994E+01       1     3.0150E+04     3.8277E-04     2.8880E+01     0.0000E+00     5.0860E-09  0.000E+00  1.533E-04  9.599E+02  5.671E+03  0.000E+00  0.000E+00  0.000E+00
    Material I.D.=           1  Unblocked  Area=  0.0000E+00    Blocked  Area=  0.0000E+00    Leakage      =  0.0000E+00
    Material I.D.=           1  Unblocked  Area=  0.0000E+00    Blocked  Area=  0.0000E+00    Leakage      =  0.0000E+00


      time   airbag/cv #  volume        pressure    internal energy      dm/dt in      density dm/dt out  total mass gas temp. surface area   reaction dm/dt outp dm/dt outv
 3.99996E+01       1     3.0501E+04     3.7662E-04     2.8747E+01     0.0000E+00     5.0275E-09  0.000E+00  1.533E-04  9.555E+02  5.696E+03  0.000E+00  0.000E+00  0.000E+00
    Material I.D.=           1  Unblocked  Area=  0.0000E+00    Blocked  Area=  0.0000E+00    Leakage      =  0.0000E+00
    Material I.D.=           1  Unblocked  Area=  0.0000E+00    Blocked  Area=  0.0000E+00    Leakage      =  0.0000E+00
