 LS-DYNA keyword deck by LS-PrePost                                      
                    ls-dyna smp d R13 R13.1.1_27_8731a0 date 07/28/2023


      time   airbag/cv #  volume        pressure    internal energy      dm/dt in      density dm/dt out  total mass gas temp. surface area   reaction dm/dt outp dm/dt outv
 1.10000E-07       1     2.7269E+03     1.0130E-04     6.9130E-01     5.5000E-14     1.2250E-09  0.000E+00  3.341E-06  1.055E+03  5.614E+03  0.000E+00  0.000E+00  0.000E+00
    Material I.D.=           1  Unblocked  Area=  0.0000E+00    Blocked  Area=  0.0000E+00    Leakage      =  0.0000E+00
    Material I.D.=           1  Unblocked  Area=  0.0000E+00    Blocked  Area=  0.0000E+00    Leakage      =  0.0000E+00


      time   airbag/cv #  volume        pressure    internal energy      dm/dt in      density dm/dt out  total mass gas temp. surface area   reaction dm/dt outp dm/dt outv
 4.99993E-01       1     2.7651E+03     1.0133E-04     7.0118E-01     2.5000E-07     1.2307E-09  0.000E+00  3.403E-06  1.050E+03  5.614E+03  0.000E+00  0.000E+00  0.000E+00
    Material I.D.=           1  Unblocked  Area=  0.0000E+00    Blocked  Area=  0.0000E+00    Leakage      =  0.0000E+00
    Material I.D.=           1  Unblocked  Area=  0.0000E+00    Blocked  Area=  0.0000E+00    Leakage      =  0.0000E+00


      time   airbag/cv #  volume        pressure    internal energy      dm/dt in      density dm/dt out  total mass gas temp. surface area   reaction dm/dt outp dm/dt outv
 9.99527E-01       1     2.8811E+03     1.0133E-04     7.3059E-01     4.9976E-07     1.2462E-09  0.000E+00  3.590E-06  1.037E+03  5.614E+03  0.000E+00  0.000E+00  0.000E+00
    Material I.D.=           1  Unblocked  Area=  0.0000E+00    Blocked  Area=  0.0000E+00    Leakage      =  0.0000E+00
    Material I.D.=           1  Unblocked  Area=  0.0000E+00    Blocked  Area=  0.0000E+00    Leakage      =  0.0000E+00


      time   airbag/cv #  volume        pressure    internal energy      dm/dt in      density dm/dt out  total mass gas temp. surface area   reaction dm/dt outp dm/dt outv
 1.49966E+00       1     3.0750E+03     1.0131E-04     7.7960E-01     7.4983E-07     1.2693E-09  0.000E+00  3.903E-06  1.018E+03  5.614E+03  0.000E+00  0.000E+00  0.000E+00
    Material I.D.=           1  Unblocked  Area=  0.0000E+00    Blocked  Area=  0.0000E+00    Leakage      =  0.0000E+00
    Material I.D.=           1  Unblocked  Area=  0.0000E+00    Blocked  Area=  0.0000E+00    Leakage      =  0.0000E+00


      time   airbag/cv #  volume        pressure    internal energy      dm/dt in      density dm/dt out  total mass gas temp. surface area   reaction dm/dt outp dm/dt outv
 1.99979E+00       1     3.3459E+03     1.0131E-04     8.4829E-01     9.9989E-07     1.2973E-09  0.000E+00  4.341E-06  9.961E+02  5.614E+03  0.000E+00  0.000E+00  0.000E+00
    Material I.D.=           1  Unblocked  Area=  0.0000E+00    Blocked  Area=  0.0000E+00    Leakage      =  0.0000E+00
    Material I.D.=           1  Unblocked  Area=  0.0000E+00    Blocked  Area=  0.0000E+00    Leakage      =  0.0000E+00


      time   airbag/cv #  volume        pressure    internal energy      dm/dt in      density dm/dt out  total mass gas temp. surface area   reaction dm/dt outp dm/dt outv
 2.49992E+00       1     3.6941E+03     1.0132E-04     9.3662E-01     1.2500E-06     1.3273E-09  0.000E+00  4.903E-06  9.736E+02  5.614E+03  0.000E+00  0.000E+00  0.000E+00
    Material I.D.=           1  Unblocked  Area=  0.0000E+00    Blocked  Area=  0.0000E+00    Leakage      =  0.0000E+00
    Material I.D.=           1  Unblocked  Area=  0.0000E+00    Blocked  Area=  0.0000E+00    Leakage      =  0.0000E+00


      time   airbag/cv #  volume        pressure    internal energy      dm/dt in      density dm/dt out  total mass gas temp. surface area   reaction dm/dt outp dm/dt outv
 2.99945E+00       1     4.1192E+03     1.0132E-04     1.0444E+00     1.4997E-06     1.3571E-09  0.000E+00  5.590E-06  9.523E+02  5.614E+03  0.000E+00  0.000E+00  0.000E+00
    Material I.D.=           1  Unblocked  Area=  0.0000E+00    Blocked  Area=  0.0000E+00    Leakage      =  0.0000E+00
    Material I.D.=           1  Unblocked  Area=  0.0000E+00    Blocked  Area=  0.0000E+00    Leakage      =  0.0000E+00


      time   airbag/cv #  volume        pressure    internal energy      dm/dt in      density dm/dt out  total mass gas temp. surface area   reaction dm/dt outp dm/dt outv
 3.49958E+00       1     4.6220E+03     1.0133E-04     1.1720E+00     1.7498E-06     1.3853E-09  0.000E+00  6.403E-06  9.330E+02  5.613E+03  0.000E+00  0.000E+00  0.000E+00
    Material I.D.=           1  Unblocked  Area=  0.0000E+00    Blocked  Area=  0.0000E+00    Leakage      =  0.0000E+00
    Material I.D.=           1  Unblocked  Area=  0.0000E+00    Blocked  Area=  0.0000E+00    Leakage      =  0.0000E+00


      time   airbag/cv #  volume        pressure    internal energy      dm/dt in      density dm/dt out  total mass gas temp. surface area   reaction dm/dt outp dm/dt outv
 3.99971E+00       1     5.2019E+03     1.0134E-04     1.3193E+00     1.9999E-06     1.4111E-09  0.000E+00  7.341E-06  9.160E+02  5.613E+03  0.000E+00  0.000E+00  0.000E+00
    Material I.D.=           1  Unblocked  Area=  0.0000E+00    Blocked  Area=  0.0000E+00    Leakage      =  0.0000E+00
    Material I.D.=           1  Unblocked  Area=  0.0000E+00    Blocked  Area=  0.0000E+00    Leakage      =  0.0000E+00


      time   airbag/cv #  volume        pressure    internal energy      dm/dt in      density dm/dt out  total mass gas temp. surface area   reaction dm/dt outp dm/dt outv
 4.49985E+00       1     5.8850E+03     1.0072E-04     1.4834E+00     2.2499E-06     1.4279E-09  0.000E+00  8.403E-06  8.997E+02  5.609E+03  0.000E+00  0.000E+00  0.000E+00
    Material I.D.=           1  Unblocked  Area=  0.0000E+00    Blocked  Area=  0.0000E+00    Leakage      =  0.0000E+00
    Material I.D.=           1  Unblocked  Area=  0.0000E+00    Blocked  Area=  0.0000E+00    Leakage      =  0.0000E+00


      time   airbag/cv #  volume        pressure    internal energy      dm/dt in      density dm/dt out  total mass gas temp. surface area   reaction dm/dt outp dm/dt outv
 4.99998E+00       1     6.5736E+03     1.0178E-04     1.6744E+00     2.5000E-06     1.4590E-09  0.000E+00  9.591E-06  8.898E+02  5.600E+03  0.000E+00  0.000E+00  0.000E+00
    Material I.D.=           1  Unblocked  Area=  0.0000E+00    Blocked  Area=  0.0000E+00    Leakage      =  0.0000E+00
    Material I.D.=           1  Unblocked  Area=  0.0000E+00    Blocked  Area=  0.0000E+00    Leakage      =  0.0000E+00


      time   airbag/cv #  volume        pressure    internal energy      dm/dt in      density dm/dt out  total mass gas temp. surface area   reaction dm/dt outp dm/dt outv
 5.49951E+00       1     7.4185E+03     1.0109E-04     1.8768E+00     2.7498E-06     1.4696E-09  0.000E+00  1.090E-05  8.774E+02  5.598E+03  0.000E+00  0.000E+00  0.000E+00
    Material I.D.=           1  Unblocked  Area=  0.0000E+00    Blocked  Area=  0.0000E+00    Leakage      =  0.0000E+00
    Material I.D.=           1  Unblocked  Area=  0.0000E+00    Blocked  Area=  0.0000E+00    Leakage      =  0.0000E+00


      time   airbag/cv #  volume        pressure    internal energy      dm/dt in      density dm/dt out  total mass gas temp. surface area   reaction dm/dt outp dm/dt outv
 5.99964E+00       1     8.2501E+03     1.0211E-04     2.1083E+00     2.9998E-06     1.4958E-09  0.000E+00  1.234E-05  8.708E+02  5.594E+03  0.000E+00  0.000E+00  0.000E+00
    Material I.D.=           1  Unblocked  Area=  0.0000E+00    Blocked  Area=  0.0000E+00    Leakage      =  0.0000E+00
    Material I.D.=           1  Unblocked  Area=  0.0000E+00    Blocked  Area=  0.0000E+00    Leakage      =  0.0000E+00


      time   airbag/cv #  volume        pressure    internal energy      dm/dt in      density dm/dt out  total mass gas temp. surface area   reaction dm/dt outp dm/dt outv
 6.49977E+00       1     9.2521E+03     1.0149E-04     2.3498E+00     3.2499E-06     1.5027E-09  0.000E+00  1.390E-05  8.614E+02  5.585E+03  0.000E+00  0.000E+00  0.000E+00
    Material I.D.=           1  Unblocked  Area=  0.0000E+00    Blocked  Area=  0.0000E+00    Leakage      =  0.0000E+00
    Material I.D.=           1  Unblocked  Area=  0.0000E+00    Blocked  Area=  0.0000E+00    Leakage      =  0.0000E+00


      time   airbag/cv #  volume        pressure    internal energy      dm/dt in      density dm/dt out  total mass gas temp. surface area   reaction dm/dt outp dm/dt outv
 6.99990E+00       1     1.0287E+04     1.0160E-04     2.6156E+00     3.5000E-06     1.5157E-09  0.000E+00  1.559E-05  8.550E+02  5.578E+03  0.000E+00  0.000E+00  0.000E+00
    Material I.D.=           1  Unblocked  Area=  0.0000E+00    Blocked  Area=  0.0000E+00    Leakage      =  0.0000E+00
    Material I.D.=           1  Unblocked  Area=  0.0000E+00    Blocked  Area=  0.0000E+00    Leakage      =  0.0000E+00


      time   airbag/cv #  volume        pressure    internal energy      dm/dt in      density dm/dt out  total mass gas temp. surface area   reaction dm/dt outp dm/dt outv
 7.49944E+00       1     1.1372E+04     1.0199E-04     2.9027E+00     3.7497E-06     1.5302E-09  0.000E+00  1.740E-05  8.502E+02  5.565E+03  0.000E+00  0.000E+00  0.000E+00
    Material I.D.=           1  Unblocked  Area=  0.0000E+00    Blocked  Area=  0.0000E+00    Leakage      =  0.0000E+00
    Material I.D.=           1  Unblocked  Area=  0.0000E+00    Blocked  Area=  0.0000E+00    Leakage      =  0.0000E+00


      time   airbag/cv #  volume        pressure    internal energy      dm/dt in      density dm/dt out  total mass gas temp. surface area   reaction dm/dt outp dm/dt outv
 7.99957E+00       1     1.2531E+04     1.0236E-04     3.2101E+00     3.9998E-06     1.5433E-09  0.000E+00  1.934E-05  8.460E+02  5.543E+03  0.000E+00  0.000E+00  0.000E+00
    Material I.D.=           1  Unblocked  Area=  0.0000E+00    Blocked  Area=  0.0000E+00    Leakage      =  0.0000E+00
    Material I.D.=           1  Unblocked  Area=  0.0000E+00    Blocked  Area=  0.0000E+00    Leakage      =  0.0000E+00


      time   airbag/cv #  volume        pressure    internal energy      dm/dt in      density dm/dt out  total mass gas temp. surface area   reaction dm/dt outp dm/dt outv
 8.49970E+00       1     1.3714E+04     1.0320E-04     3.5419E+00     4.2498E-06     1.5607E-09  0.000E+00  2.140E-05  8.434E+02  5.520E+03  0.000E+00  0.000E+00  0.000E+00
    Material I.D.=           1  Unblocked  Area=  0.0000E+00    Blocked  Area=  0.0000E+00    Leakage      =  0.0000E+00
    Material I.D.=           1  Unblocked  Area=  0.0000E+00    Blocked  Area=  0.0000E+00    Leakage      =  0.0000E+00


      time   airbag/cv #  volume        pressure    internal energy      dm/dt in      density dm/dt out  total mass gas temp. surface area   reaction dm/dt outp dm/dt outv
 8.99983E+00       1     1.4891E+04     1.0467E-04     3.9003E+00     4.4999E-06     1.5843E-09  0.000E+00  2.359E-05  8.427E+02  5.484E+03  0.000E+00  0.000E+00  0.000E+00
    Material I.D.=           1  Unblocked  Area=  0.0000E+00    Blocked  Area=  0.0000E+00    Leakage      =  0.0000E+00
    Material I.D.=           1  Unblocked  Area=  0.0000E+00    Blocked  Area=  0.0000E+00    Leakage      =  0.0000E+00


      time   airbag/cv #  volume        pressure    internal energy      dm/dt in      density dm/dt out  total mass gas temp. surface area   reaction dm/dt outp dm/dt outv
 9.49996E+00       1     1.5927E+04     1.0785E-04     4.2986E+00     4.7500E-06     1.6264E-09  0.000E+00  2.590E-05  8.458E+02  5.446E+03  0.000E+00  0.000E+00  0.000E+00
    Material I.D.=           1  Unblocked  Area=  0.0000E+00    Blocked  Area=  0.0000E+00    Leakage      =  0.0000E+00
    Material I.D.=           1  Unblocked  Area=  0.0000E+00    Blocked  Area=  0.0000E+00    Leakage      =  0.0000E+00


      time   airbag/cv #  volume        pressure    internal energy      dm/dt in      density dm/dt out  total mass gas temp. surface area   reaction dm/dt outp dm/dt outv
 9.99949E+00       1     1.6662E+04     1.1398E-04     4.7525E+00     4.9997E-06     1.7009E-09  0.000E+00  2.834E-05  8.547E+02  5.407E+03  0.000E+00  0.000E+00  0.000E+00
    Material I.D.=           1  Unblocked  Area=  0.0000E+00    Blocked  Area=  0.0000E+00    Leakage      =  0.0000E+00
    Material I.D.=           1  Unblocked  Area=  0.0000E+00    Blocked  Area=  0.0000E+00    Leakage      =  0.0000E+00


      time   airbag/cv #  volume        pressure    internal energy      dm/dt in      density dm/dt out  total mass gas temp. surface area   reaction dm/dt outp dm/dt outv
 1.04996E+01       1     1.7010E+04     1.2391E-04     5.2745E+00     5.2498E-06     1.8168E-09  0.000E+00  3.090E-05  8.699E+02  5.398E+03  0.000E+00  0.000E+00  0.000E+00
    Material I.D.=           1  Unblocked  Area=  0.0000E+00    Blocked  Area=  0.0000E+00    Leakage      =  0.0000E+00
    Material I.D.=           1  Unblocked  Area=  0.0000E+00    Blocked  Area=  0.0000E+00    Leakage      =  0.0000E+00


      time   airbag/cv #  volume        pressure    internal energy      dm/dt in      density dm/dt out  total mass gas temp. surface area   reaction dm/dt outp dm/dt outv
 1.09998E+01       1     1.7207E+04     1.3561E-04     5.8395E+00     5.4999E-06     1.9522E-09  0.000E+00  3.359E-05  8.861E+02  5.419E+03  0.000E+00  0.000E+00  0.000E+00
    Material I.D.=           1  Unblocked  Area=  0.0000E+00    Blocked  Area=  0.0000E+00    Leakage      =  0.0000E+00
    Material I.D.=           1  Unblocked  Area=  0.0000E+00    Blocked  Area=  0.0000E+00    Leakage      =  0.0000E+00


      time   airbag/cv #  volume        pressure    internal energy      dm/dt in      density dm/dt out  total mass gas temp. surface area   reaction dm/dt outp dm/dt outv
 1.14999E+01       1     1.7434E+04     1.4727E-04     6.4255E+00     5.7499E-06     2.0881E-09  0.000E+00  3.640E-05  8.996E+02  5.449E+03  0.000E+00  0.000E+00  0.000E+00
    Material I.D.=           1  Unblocked  Area=  0.0000E+00    Blocked  Area=  0.0000E+00    Leakage      =  0.0000E+00
    Material I.D.=           1  Unblocked  Area=  0.0000E+00    Blocked  Area=  0.0000E+00    Leakage      =  0.0000E+00


      time   airbag/cv #  volume        pressure    internal energy      dm/dt in      density dm/dt out  total mass gas temp. surface area   reaction dm/dt outp dm/dt outv
 1.19994E+01       1     1.7808E+04     1.5737E-04     7.0132E+00     5.9997E-06     2.2090E-09  0.000E+00  3.934E-05  9.086E+02  5.483E+03  0.000E+00  0.000E+00  0.000E+00
    Material I.D.=           1  Unblocked  Area=  0.0000E+00    Blocked  Area=  0.0000E+00    Leakage      =  0.0000E+00
    Material I.D.=           1  Unblocked  Area=  0.0000E+00    Blocked  Area=  0.0000E+00    Leakage      =  0.0000E+00


      time   airbag/cv #  volume        pressure    internal energy      dm/dt in      density dm/dt out  total mass gas temp. surface area   reaction dm/dt outp dm/dt outv
 1.24995E+01       1     1.8019E+04     1.6968E-04     7.6515E+00     6.2498E-06     2.3532E-09  0.000E+00  4.240E-05  9.197E+02  5.500E+03  0.000E+00  0.000E+00  0.000E+00
    Material I.D.=           1  Unblocked  Area=  0.0000E+00    Blocked  Area=  0.0000E+00    Leakage      =  0.0000E+00
    Material I.D.=           1  Unblocked  Area=  0.0000E+00    Blocked  Area=  0.0000E+00    Leakage      =  0.0000E+00


      time   airbag/cv #  volume        pressure    internal energy      dm/dt in      density dm/dt out  total mass gas temp. surface area   reaction dm/dt outp dm/dt outv
 1.29997E+01       1     1.8222E+04     1.8235E-04     8.3156E+00     6.4998E-06     2.5020E-09  0.000E+00  4.559E-05  9.297E+02  5.512E+03  0.000E+00  0.000E+00  0.000E+00
    Material I.D.=           1  Unblocked  Area=  0.0000E+00    Blocked  Area=  0.0000E+00    Leakage      =  0.0000E+00
    Material I.D.=           1  Unblocked  Area=  0.0000E+00    Blocked  Area=  0.0000E+00    Leakage      =  0.0000E+00


      time   airbag/cv #  volume        pressure    internal energy      dm/dt in      density dm/dt out  total mass gas temp. surface area   reaction dm/dt outp dm/dt outv
 1.34998E+01       1     1.8352E+04     1.9638E-04     9.0190E+00     6.7499E-06     2.6647E-09  0.000E+00  4.890E-05  9.400E+02  5.524E+03  0.000E+00  0.000E+00  0.000E+00
    Material I.D.=           1  Unblocked  Area=  0.0000E+00    Blocked  Area=  0.0000E+00    Leakage      =  0.0000E+00
    Material I.D.=           1  Unblocked  Area=  0.0000E+00    Blocked  Area=  0.0000E+00    Leakage      =  0.0000E+00


      time   airbag/cv #  volume        pressure    internal energy      dm/dt in      density dm/dt out  total mass gas temp. surface area   reaction dm/dt outp dm/dt outv
 1.39999E+01       1     1.8536E+04     2.0990E-04     9.7366E+00     7.0000E-06     2.8239E-09  0.000E+00  5.234E-05  9.481E+02  5.535E+03  0.000E+00  0.000E+00  0.000E+00
    Material I.D.=           1  Unblocked  Area=  0.0000E+00    Blocked  Area=  0.0000E+00    Leakage      =  0.0000E+00
    Material I.D.=           1  Unblocked  Area=  0.0000E+00    Blocked  Area=  0.0000E+00    Leakage      =  0.0000E+00


      time   airbag/cv #  volume        pressure    internal energy      dm/dt in      density dm/dt out  total mass gas temp. surface area   reaction dm/dt outp dm/dt outv
 1.44995E+01       1     1.8655E+04     2.2476E-04     1.0493E+01     7.2497E-06     2.9966E-09  0.000E+00  5.590E-05  9.567E+02  5.548E+03  0.000E+00  0.000E+00  0.000E+00
    Material I.D.=           1  Unblocked  Area=  0.0000E+00    Blocked  Area=  0.0000E+00    Leakage      =  0.0000E+00
    Material I.D.=           1  Unblocked  Area=  0.0000E+00    Blocked  Area=  0.0000E+00    Leakage      =  0.0000E+00


      time   airbag/cv #  volume        pressure    internal energy      dm/dt in      density dm/dt out  total mass gas temp. surface area   reaction dm/dt outp dm/dt outv
 1.49996E+01       1     1.8878E+04     2.3815E-04     1.1251E+01     7.4998E-06     3.1566E-09  0.000E+00  5.959E-05  9.623E+02  5.563E+03  0.000E+00  0.000E+00  0.000E+00
    Material I.D.=           1  Unblocked  Area=  0.0000E+00    Blocked  Area=  0.0000E+00    Leakage      =  0.0000E+00
    Material I.D.=           1  Unblocked  Area=  0.0000E+00    Blocked  Area=  0.0000E+00    Leakage      =  0.0000E+00


      time   airbag/cv #  volume        pressure    internal energy      dm/dt in      density dm/dt out  total mass gas temp. surface area   reaction dm/dt outp dm/dt outv
 1.54997E+01       1     1.9054E+04     2.5262E-04     1.2045E+01     7.7499E-06     3.3276E-09  0.000E+00  6.340E-05  9.683E+02  5.570E+03  0.000E+00  0.000E+00  0.000E+00
    Material I.D.=           1  Unblocked  Area=  0.0000E+00    Blocked  Area=  0.0000E+00    Leakage      =  0.0000E+00
    Material I.D.=           1  Unblocked  Area=  0.0000E+00    Blocked  Area=  0.0000E+00    Leakage      =  0.0000E+00


      time   airbag/cv #  volume        pressure    internal energy      dm/dt in      density dm/dt out  total mass gas temp. surface area   reaction dm/dt outp dm/dt outv
 1.59999E+01       1     1.9394E+04     2.6420E-04     1.2823E+01     7.9999E-06     3.4723E-09  0.000E+00  6.734E-05  9.705E+02  5.575E+03  0.000E+00  0.000E+00  0.000E+00
    Material I.D.=           1  Unblocked  Area=  0.0000E+00    Blocked  Area=  0.0000E+00    Leakage      =  0.0000E+00
    Material I.D.=           1  Unblocked  Area=  0.0000E+00    Blocked  Area=  0.0000E+00    Leakage      =  0.0000E+00


      time   airbag/cv #  volume        pressure    internal energy      dm/dt in      density dm/dt out  total mass gas temp. surface area   reaction dm/dt outp dm/dt outv
 1.65000E+01       1     1.9857E+04     2.7349E-04     1.3591E+01     8.2500E-06     3.5959E-09  0.000E+00  7.141E-05  9.701E+02  5.568E+03  0.000E+00  0.000E+00  0.000E+00
    Material I.D.=           1  Unblocked  Area=  0.0000E+00    Blocked  Area=  0.0000E+00    Leakage      =  0.0000E+00
    Material I.D.=           1  Unblocked  Area=  0.0000E+00    Blocked  Area=  0.0000E+00    Leakage      =  0.0000E+00


      time   airbag/cv #  volume        pressure    internal energy      dm/dt in      density dm/dt out  total mass gas temp. surface area   reaction dm/dt outp dm/dt outv
 1.69995E+01       1     2.0911E+04     2.7176E-04     1.4221E+01     8.4998E-06     3.6149E-09  0.000E+00  7.559E-05  9.589E+02  5.562E+03  0.000E+00  0.000E+00  0.000E+00
    Material I.D.=           1  Unblocked  Area=  0.0000E+00    Blocked  Area=  0.0000E+00    Leakage      =  0.0000E+00
    Material I.D.=           1  Unblocked  Area=  0.0000E+00    Blocked  Area=  0.0000E+00    Leakage      =  0.0000E+00


      time   airbag/cv #  volume        pressure    internal energy      dm/dt in      density dm/dt out  total mass gas temp. surface area   reaction dm/dt outp dm/dt outv
 1.74997E+01       1     2.4317E+04     2.3504E-04     1.4303E+01     8.7498E-06     3.2859E-09  0.000E+00  7.990E-05  9.124E+02  5.568E+03  0.000E+00  0.000E+00  0.000E+00
    Material I.D.=           1  Unblocked  Area=  0.0000E+00    Blocked  Area=  0.0000E+00    Leakage      =  0.0000E+00
    Material I.D.=           1  Unblocked  Area=  0.0000E+00    Blocked  Area=  0.0000E+00    Leakage      =  0.0000E+00


      time   airbag/cv #  volume        pressure    internal energy      dm/dt in      density dm/dt out  total mass gas temp. surface area   reaction dm/dt outp dm/dt outv
 1.79998E+01       1     2.4460E+04     2.4912E-04     1.5250E+01     8.9999E-06     3.4481E-09  0.000E+00  8.434E-05  9.215E+02  5.641E+03  0.000E+00  0.000E+00  0.000E+00
    Material I.D.=           1  Unblocked  Area=  0.0000E+00    Blocked  Area=  0.0000E+00    Leakage      =  0.0000E+00
    Material I.D.=           1  Unblocked  Area=  0.0000E+00    Blocked  Area=  0.0000E+00    Leakage      =  0.0000E+00


      time   airbag/cv #  volume        pressure    internal energy      dm/dt in      density dm/dt out  total mass gas temp. surface area   reaction dm/dt outp dm/dt outv
 1.84999E+01       1     2.5544E+04     2.5003E-04     1.5983E+01     9.2500E-06     3.4805E-09  0.000E+00  8.891E-05  9.163E+02  5.621E+03  0.000E+00  0.000E+00  0.000E+00
    Material I.D.=           1  Unblocked  Area=  0.0000E+00    Blocked  Area=  0.0000E+00    Leakage      =  0.0000E+00
    Material I.D.=           1  Unblocked  Area=  0.0000E+00    Blocked  Area=  0.0000E+00    Leakage      =  0.0000E+00


      time   airbag/cv #  volume        pressure    internal energy      dm/dt in      density dm/dt out  total mass gas temp. surface area   reaction dm/dt outp dm/dt outv
 1.89995E+01       1     2.6120E+04     2.5798E-04     1.6863E+01     9.4997E-06     3.5831E-09  0.000E+00  9.359E-05  9.184E+02  5.613E+03  0.000E+00  0.000E+00  0.000E+00
    Material I.D.=           1  Unblocked  Area=  0.0000E+00    Blocked  Area=  0.0000E+00    Leakage      =  0.0000E+00
    Material I.D.=           1  Unblocked  Area=  0.0000E+00    Blocked  Area=  0.0000E+00    Leakage      =  0.0000E+00


      time   airbag/cv #  volume        pressure    internal energy      dm/dt in      density dm/dt out  total mass gas temp. surface area   reaction dm/dt outp dm/dt outv
 1.94996E+01       1     2.7522E+04     2.5501E-04     1.7564E+01     9.7498E-06     3.5754E-09  0.000E+00  9.840E-05  9.097E+02  5.538E+03  0.000E+00  0.000E+00  0.000E+00
    Material I.D.=           1  Unblocked  Area=  0.0000E+00    Blocked  Area=  0.0000E+00    Leakage      =  0.0000E+00
    Material I.D.=           1  Unblocked  Area=  0.0000E+00    Blocked  Area=  0.0000E+00    Leakage      =  0.0000E+00


      time   airbag/cv #  volume        pressure    internal energy      dm/dt in      density dm/dt out  total mass gas temp. surface area   reaction dm/dt outp dm/dt outv
 1.99997E+01       1     2.7025E+04     2.7768E-04     1.8780E+01     9.9999E-06     3.8239E-09  0.000E+00  1.033E-04  9.262E+02  5.592E+03  0.000E+00  0.000E+00  0.000E+00
    Material I.D.=           1  Unblocked  Area=  0.0000E+00    Blocked  Area=  0.0000E+00    Leakage      =  0.0000E+00
    Material I.D.=           1  Unblocked  Area=  0.0000E+00    Blocked  Area=  0.0000E+00    Leakage      =  0.0000E+00


      time   airbag/cv #  volume        pressure    internal energy      dm/dt in      density dm/dt out  total mass gas temp. surface area   reaction dm/dt outp dm/dt outv
 2.04999E+01       1     2.7503E+04     2.8640E-04     1.9712E+01     9.5001E-06     3.9347E-09  0.000E+00  1.082E-04  9.284E+02  5.628E+03  0.000E+00  0.000E+00  0.000E+00
    Material I.D.=           1  Unblocked  Area=  0.0000E+00    Blocked  Area=  0.0000E+00    Leakage      =  0.0000E+00
    Material I.D.=           1  Unblocked  Area=  0.0000E+00    Blocked  Area=  0.0000E+00    Leakage      =  0.0000E+00


      time   airbag/cv #  volume        pressure    internal energy      dm/dt in      density dm/dt out  total mass gas temp. surface area   reaction dm/dt outp dm/dt outv
 2.10000E+01       1     2.8190E+04     2.9101E-04     2.0531E+01     9.0000E-06     4.0029E-09  0.000E+00  1.128E-04  9.273E+02  5.609E+03  0.000E+00  0.000E+00  0.000E+00
    Material I.D.=           1  Unblocked  Area=  0.0000E+00    Blocked  Area=  0.0000E+00    Leakage      =  0.0000E+00
    Material I.D.=           1  Unblocked  Area=  0.0000E+00    Blocked  Area=  0.0000E+00    Leakage      =  0.0000E+00


      time   airbag/cv #  volume        pressure    internal energy      dm/dt in      density dm/dt out  total mass gas temp. surface area   reaction dm/dt outp dm/dt outv
 2.14995E+01       1     2.8329E+04     3.0256E-04     2.1450E+01     8.5005E-06     4.1376E-09  0.000E+00  1.172E-04  9.327E+02  5.595E+03  0.000E+00  0.000E+00  0.000E+00
    Material I.D.=           1  Unblocked  Area=  0.0000E+00    Blocked  Area=  0.0000E+00    Leakage      =  0.0000E+00
    Material I.D.=           1  Unblocked  Area=  0.0000E+00    Blocked  Area=  0.0000E+00    Leakage      =  0.0000E+00


      time   airbag/cv #  volume        pressure    internal energy      dm/dt in      density dm/dt out  total mass gas temp. surface area   reaction dm/dt outp dm/dt outv
 2.19996E+01       1     2.8715E+04     3.0944E-04     2.2237E+01     8.0004E-06     4.2256E-09  0.000E+00  1.213E-04  9.341E+02  5.591E+03  0.000E+00  0.000E+00  0.000E+00
    Material I.D.=           1  Unblocked  Area=  0.0000E+00    Blocked  Area=  0.0000E+00    Leakage      =  0.0000E+00
    Material I.D.=           1  Unblocked  Area=  0.0000E+00    Blocked  Area=  0.0000E+00    Leakage      =  0.0000E+00


      time   airbag/cv #  volume        pressure    internal energy      dm/dt in      density dm/dt out  total mass gas temp. surface area   reaction dm/dt outp dm/dt outv
 2.24998E+01       1     2.8789E+04     3.2013E-04     2.3064E+01     7.5002E-06     4.3494E-09  0.000E+00  1.252E-04  9.388E+02  5.600E+03  0.000E+00  0.000E+00  0.000E+00
    Material I.D.=           1  Unblocked  Area=  0.0000E+00    Blocked  Area=  0.0000E+00    Leakage      =  0.0000E+00
    Material I.D.=           1  Unblocked  Area=  0.0000E+00    Blocked  Area=  0.0000E+00    Leakage      =  0.0000E+00


      time   airbag/cv #  volume        pressure    internal energy      dm/dt in      density dm/dt out  total mass gas temp. surface area   reaction dm/dt outp dm/dt outv
 2.29999E+01       1     2.8680E+04     3.3295E-04     2.3897E+01     7.0001E-06     4.4924E-09  0.000E+00  1.288E-04  9.453E+02  5.638E+03  0.000E+00  0.000E+00  0.000E+00
    Material I.D.=           1  Unblocked  Area=  0.0000E+00    Blocked  Area=  0.0000E+00    Leakage      =  0.0000E+00
    Material I.D.=           1  Unblocked  Area=  0.0000E+00    Blocked  Area=  0.0000E+00    Leakage      =  0.0000E+00


      time   airbag/cv #  volume        pressure    internal energy      dm/dt in      density dm/dt out  total mass gas temp. surface area   reaction dm/dt outp dm/dt outv
 2.34994E+01       1     2.8815E+04     3.4103E-04     2.4592E+01     6.5006E-06     4.5883E-09  0.000E+00  1.322E-04  9.480E+02  5.688E+03  0.000E+00  0.000E+00  0.000E+00
    Material I.D.=           1  Unblocked  Area=  0.0000E+00    Blocked  Area=  0.0000E+00    Leakage      =  0.0000E+00
    Material I.D.=           1  Unblocked  Area=  0.0000E+00    Blocked  Area=  0.0000E+00    Leakage      =  0.0000E+00


      time   airbag/cv #  volume        pressure    internal energy      dm/dt in      density dm/dt out  total mass gas temp. surface area   reaction dm/dt outp dm/dt outv
 2.39996E+01       1     2.8576E+04     3.5466E-04     2.5363E+01     6.0004E-06     4.7361E-09  0.000E+00  1.353E-04  9.552E+02  5.703E+03  0.000E+00  0.000E+00  0.000E+00
    Material I.D.=           1  Unblocked  Area=  0.0000E+00    Blocked  Area=  0.0000E+00    Leakage      =  0.0000E+00
    Material I.D.=           1  Unblocked  Area=  0.0000E+00    Blocked  Area=  0.0000E+00    Leakage      =  0.0000E+00


      time   airbag/cv #  volume        pressure    internal energy      dm/dt in      density dm/dt out  total mass gas temp. surface area   reaction dm/dt outp dm/dt outv
 2.44997E+01       1     2.9120E+04     3.5408E-04     2.5803E+01     5.5003E-06     4.7464E-09  0.000E+00  1.382E-04  9.515E+02  5.685E+03  0.000E+00  0.000E+00  0.000E+00
    Material I.D.=           1  Unblocked  Area=  0.0000E+00    Blocked  Area=  0.0000E+00    Leakage      =  0.0000E+00
    Material I.D.=           1  Unblocked  Area=  0.0000E+00    Blocked  Area=  0.0000E+00    Leakage      =  0.0000E+00


      time   airbag/cv #  volume        pressure    internal energy      dm/dt in      density dm/dt out  total mass gas temp. surface area   reaction dm/dt outp dm/dt outv
 2.49998E+01       1     2.9179E+04     3.6097E-04     2.6359E+01     5.0002E-06     4.8267E-09  0.000E+00  1.408E-04  9.539E+02  5.702E+03  0.000E+00  0.000E+00  0.000E+00
    Material I.D.=           1  Unblocked  Area=  0.0000E+00    Blocked  Area=  0.0000E+00    Leakage      =  0.0000E+00
    Material I.D.=           1  Unblocked  Area=  0.0000E+00    Blocked  Area=  0.0000E+00    Leakage      =  0.0000E+00


      time   airbag/cv #  volume        pressure    internal energy      dm/dt in      density dm/dt out  total mass gas temp. surface area   reaction dm/dt outp dm/dt outv
 2.55000E+01       1     2.9697E+04     3.5919E-04     2.6694E+01     4.5000E-06     4.8226E-09  0.000E+00  1.432E-04  9.500E+02  5.719E+03  0.000E+00  0.000E+00  0.000E+00
    Material I.D.=           1  Unblocked  Area=  0.0000E+00    Blocked  Area=  0.0000E+00    Leakage      =  0.0000E+00
    Material I.D.=           1  Unblocked  Area=  0.0000E+00    Blocked  Area=  0.0000E+00    Leakage      =  0.0000E+00


      time   airbag/cv #  volume        pressure    internal energy      dm/dt in      density dm/dt out  total mass gas temp. surface area   reaction dm/dt outp dm/dt outv
 2.59995E+01       1     2.9776E+04     3.6410E-04     2.7132E+01     4.0005E-06     4.8810E-09  0.000E+00  1.453E-04  9.515E+02  5.701E+03  0.000E+00  0.000E+00  0.000E+00
    Material I.D.=           1  Unblocked  Area=  0.0000E+00    Blocked  Area=  0.0000E+00    Leakage      =  0.0000E+00
    Material I.D.=           1  Unblocked  Area=  0.0000E+00    Blocked  Area=  0.0000E+00    Leakage      =  0.0000E+00


      time   airbag/cv #  volume        pressure    internal energy      dm/dt in      density dm/dt out  total mass gas temp. surface area   reaction dm/dt outp dm/dt outv
 2.64996E+01       1     2.9741E+04     3.7024E-04     2.7557E+01     3.5004E-06     4.9498E-09  0.000E+00  1.472E-04  9.541E+02  5.683E+03  0.000E+00  0.000E+00  0.000E+00
    Material I.D.=           1  Unblocked  Area=  0.0000E+00    Blocked  Area=  0.0000E+00    Leakage      =  0.0000E+00
    Material I.D.=           1  Unblocked  Area=  0.0000E+00    Blocked  Area=  0.0000E+00    Leakage      =  0.0000E+00


      time   airbag/cv #  volume        pressure    internal energy      dm/dt in      density dm/dt out  total mass gas temp. surface area   reaction dm/dt outp dm/dt outv
 2.69998E+01       1     3.0085E+04     3.6907E-04     2.7787E+01     3.0002E-06     4.9474E-09  0.000E+00  1.488E-04  9.515E+02  5.698E+03  0.000E+00  0.000E+00  0.000E+00
    Material I.D.=           1  Unblocked  Area=  0.0000E+00    Blocked  Area=  0.0000E+00    Leakage      =  0.0000E+00
    Material I.D.=           1  Unblocked  Area=  0.0000E+00    Blocked  Area=  0.0000E+00    Leakage      =  0.0000E+00


      time   airbag/cv #  volume        pressure    internal energy      dm/dt in      density dm/dt out  total mass gas temp. surface area   reaction dm/dt outp dm/dt outv
 2.74999E+01       1     3.0325E+04     3.6896E-04     2.8000E+01     2.5001E-06     4.9535E-09  0.000E+00  1.502E-04  9.500E+02  5.703E+03  0.000E+00  0.000E+00  0.000E+00
    Material I.D.=           1  Unblocked  Area=  0.0000E+00    Blocked  Area=  0.0000E+00    Leakage      =  0.0000E+00
    Material I.D.=           1  Unblocked  Area=  0.0000E+00    Blocked  Area=  0.0000E+00    Leakage      =  0.0000E+00


      time   airbag/cv #  volume        pressure    internal energy      dm/dt in      density dm/dt out  total mass gas temp. surface area   reaction dm/dt outp dm/dt outv
 2.79994E+01       1     3.0158E+04     3.7509E-04     2.8309E+01     2.0006E-06     5.0182E-09  0.000E+00  1.513E-04  9.534E+02  5.702E+03  0.000E+00  0.000E+00  0.000E+00
    Material I.D.=           1  Unblocked  Area=  0.0000E+00    Blocked  Area=  0.0000E+00    Leakage      =  0.0000E+00
    Material I.D.=           1  Unblocked  Area=  0.0000E+00    Blocked  Area=  0.0000E+00    Leakage      =  0.0000E+00


      time   airbag/cv #  volume        pressure    internal energy      dm/dt in      density dm/dt out  total mass gas temp. surface area   reaction dm/dt outp dm/dt outv
 2.84996E+01       1     2.9877E+04     3.8262E-04     2.8608E+01     1.5004E-06     5.0947E-09  0.000E+00  1.522E-04  9.579E+02  5.679E+03  0.000E+00  0.000E+00  0.000E+00
    Material I.D.=           1  Unblocked  Area=  0.0000E+00    Blocked  Area=  0.0000E+00    Leakage      =  0.0000E+00
    Material I.D.=           1  Unblocked  Area=  0.0000E+00    Blocked  Area=  0.0000E+00    Leakage      =  0.0000E+00


      time   airbag/cv #  volume        pressure    internal energy      dm/dt in      density dm/dt out  total mass gas temp. surface area   reaction dm/dt outp dm/dt outv
 2.89997E+01       1     3.0321E+04     3.7661E-04     2.8577E+01     1.0003E-06     5.0408E-09  0.000E+00  1.528E-04  9.530E+02  5.657E+03  0.000E+00  0.000E+00  0.000E+00
    Material I.D.=           1  Unblocked  Area=  0.0000E+00    Blocked  Area=  0.0000E+00    Leakage      =  0.0000E+00
    Material I.D.=           1  Unblocked  Area=  0.0000E+00    Blocked  Area=  0.0000E+00    Leakage      =  0.0000E+00


      time   airbag/cv #  volume        pressure    internal energy      dm/dt in      density dm/dt out  total mass gas temp. surface area   reaction dm/dt outp dm/dt outv
 2.94998E+01       1     2.9962E+04     3.8404E-04     2.8796E+01     5.0018E-07     5.1137E-09  0.000E+00  1.532E-04  9.579E+02  5.723E+03  0.000E+00  0.000E+00  0.000E+00
    Material I.D.=           1  Unblocked  Area=  0.0000E+00    Blocked  Area=  0.0000E+00    Leakage      =  0.0000E+00
    Material I.D.=           1  Unblocked  Area=  0.0000E+00    Blocked  Area=  0.0000E+00    Leakage      =  0.0000E+00


      time   airbag/cv #  volume        pressure    internal energy      dm/dt in      density dm/dt out  total mass gas temp. surface area   reaction dm/dt outp dm/dt outv
 2.99999E+01       1     2.9976E+04     3.8415E-04     2.8818E+01     5.2627E-11     5.1155E-09  0.000E+00  1.533E-04  9.579E+02  5.711E+03  0.000E+00  0.000E+00  0.000E+00
    Material I.D.=           1  Unblocked  Area=  0.0000E+00    Blocked  Area=  0.0000E+00    Leakage      =  0.0000E+00
    Material I.D.=           1  Unblocked  Area=  0.0000E+00    Blocked  Area=  0.0000E+00    Leakage      =  0.0000E+00


      time   airbag/cv #  volume        pressure    internal energy      dm/dt in      density dm/dt out  total mass gas temp. surface area   reaction dm/dt outp dm/dt outv
 3.04995E+01       1     2.9955E+04     3.8454E-04     2.8826E+01     0.0000E+00     5.1191E-09  0.000E+00  1.533E-04  9.581E+02  5.712E+03  0.000E+00  0.000E+00  0.000E+00
    Material I.D.=           1  Unblocked  Area=  0.0000E+00    Blocked  Area=  0.0000E+00    Leakage      =  0.0000E+00
    Material I.D.=           1  Unblocked  Area=  0.0000E+00    Blocked  Area=  0.0000E+00    Leakage      =  0.0000E+00


      time   airbag/cv #  volume        pressure    internal energy      dm/dt in      density dm/dt out  total mass gas temp. surface area   reaction dm/dt outp dm/dt outv
 3.09996E+01       1     3.0020E+04     3.8336E-04     2.8801E+01     0.0000E+00     5.1079E-09  0.000E+00  1.533E-04  9.573E+02  5.711E+03  0.000E+00  0.000E+00  0.000E+00
    Material I.D.=           1  Unblocked  Area=  0.0000E+00    Blocked  Area=  0.0000E+00    Leakage      =  0.0000E+00
    Material I.D.=           1  Unblocked  Area=  0.0000E+00    Blocked  Area=  0.0000E+00    Leakage      =  0.0000E+00


      time   airbag/cv #  volume        pressure    internal energy      dm/dt in      density dm/dt out  total mass gas temp. surface area   reaction dm/dt outp dm/dt outv
 3.14997E+01       1     3.0124E+04     3.8151E-04     2.8761E+01     0.0000E+00     5.0902E-09  0.000E+00  1.533E-04  9.560E+02  5.710E+03  0.000E+00  0.000E+00  0.000E+00
    Material I.D.=           1  Unblocked  Area=  0.0000E+00    Blocked  Area=  0.0000E+00    Leakage      =  0.0000E+00
    Material I.D.=           1  Unblocked  Area=  0.0000E+00    Blocked  Area=  0.0000E+00    Leakage      =  0.0000E+00


      time   airbag/cv #  volume        pressure    internal energy      dm/dt in      density dm/dt out  total mass gas temp. surface area   reaction dm/dt outp dm/dt outv
 3.19999E+01       1     3.0022E+04     3.8333E-04     2.8800E+01     0.0000E+00     5.1076E-09  0.000E+00  1.533E-04  9.573E+02  5.707E+03  0.000E+00  0.000E+00  0.000E+00
    Material I.D.=           1  Unblocked  Area=  0.0000E+00    Blocked  Area=  0.0000E+00    Leakage      =  0.0000E+00
    Material I.D.=           1  Unblocked  Area=  0.0000E+00    Blocked  Area=  0.0000E+00    Leakage      =  0.0000E+00


      time   airbag/cv #  volume        pressure    internal energy      dm/dt in      density dm/dt out  total mass gas temp. surface area   reaction dm/dt outp dm/dt outv
 3.24994E+01       1     3.0453E+04     3.7576E-04     2.8637E+01     0.0000E+00     5.0354E-09  0.000E+00  1.533E-04  9.518E+02  5.696E+03  0.000E+00  0.000E+00  0.000E+00
    Material I.D.=           1  Unblocked  Area=  0.0000E+00    Blocked  Area=  0.0000E+00    Leakage      =  0.0000E+00
    Material I.D.=           1  Unblocked  Area=  0.0000E+00    Blocked  Area=  0.0000E+00    Leakage      =  0.0000E+00


      time   airbag/cv #  volume        pressure    internal energy      dm/dt in      density dm/dt out  total mass gas temp. surface area   reaction dm/dt outp dm/dt outv
 3.29995E+01       1     2.9794E+04     3.8744E-04     2.8888E+01     0.0000E+00     5.1467E-09  0.000E+00  1.533E-04  9.602E+02  5.726E+03  0.000E+00  0.000E+00  0.000E+00
    Material I.D.=           1  Unblocked  Area=  0.0000E+00    Blocked  Area=  0.0000E+00    Leakage      =  0.0000E+00
    Material I.D.=           1  Unblocked  Area=  0.0000E+00    Blocked  Area=  0.0000E+00    Leakage      =  0.0000E+00


      time   airbag/cv #  volume        pressure    internal energy      dm/dt in      density dm/dt out  total mass gas temp. surface area   reaction dm/dt outp dm/dt outv
 3.34997E+01       1     3.0396E+04     3.7675E-04     2.8658E+01     0.0000E+00     5.0448E-09  0.000E+00  1.533E-04  9.526E+02  5.686E+03  0.000E+00  0.000E+00  0.000E+00
    Material I.D.=           1  Unblocked  Area=  0.0000E+00    Blocked  Area=  0.0000E+00    Leakage      =  0.0000E+00
    Material I.D.=           1  Unblocked  Area=  0.0000E+00    Blocked  Area=  0.0000E+00    Leakage      =  0.0000E+00


      time   airbag/cv #  volume        pressure    internal energy      dm/dt in      density dm/dt out  total mass gas temp. surface area   reaction dm/dt outp dm/dt outv
 3.39998E+01       1     2.9874E+04     3.8600E-04     2.8857E+01     0.0000E+00     5.1330E-09  0.000E+00  1.533E-04  9.592E+02  5.712E+03  0.000E+00  0.000E+00  0.000E+00
    Material I.D.=           1  Unblocked  Area=  0.0000E+00    Blocked  Area=  0.0000E+00    Leakage      =  0.0000E+00
    Material I.D.=           1  Unblocked  Area=  0.0000E+00    Blocked  Area=  0.0000E+00    Leakage      =  0.0000E+00


      time   airbag/cv #  volume        pressure    internal energy      dm/dt in      density dm/dt out  total mass gas temp. surface area   reaction dm/dt outp dm/dt outv
 3.44999E+01       1     3.0139E+04     3.8126E-04     2.8756E+01     0.0000E+00     5.0879E-09  0.000E+00  1.533E-04  9.558E+02  5.708E+03  0.000E+00  0.000E+00  0.000E+00
    Material I.D.=           1  Unblocked  Area=  0.0000E+00    Blocked  Area=  0.0000E+00    Leakage      =  0.0000E+00
    Material I.D.=           1  Unblocked  Area=  0.0000E+00    Blocked  Area=  0.0000E+00    Leakage      =  0.0000E+00


      time   airbag/cv #  volume        pressure    internal energy      dm/dt in      density dm/dt out  total mass gas temp. surface area   reaction dm/dt outp dm/dt outv
 3.49995E+01       1     3.0130E+04     3.8141E-04     2.8759E+01     0.0000E+00     5.0893E-09  0.000E+00  1.533E-04  9.559E+02  5.710E+03  0.000E+00  0.000E+00  0.000E+00
    Material I.D.=           1  Unblocked  Area=  0.0000E+00    Blocked  Area=  0.0000E+00    Leakage      =  0.0000E+00
    Material I.D.=           1  Unblocked  Area=  0.0000E+00    Blocked  Area=  0.0000E+00    Leakage      =  0.0000E+00


      time   airbag/cv #  volume        pressure    internal energy      dm/dt in      density dm/dt out  total mass gas temp. surface area   reaction dm/dt outp dm/dt outv
 3.54996E+01       1     3.0552E+04     3.7405E-04     2.8599E+01     0.0000E+00     5.0189E-09  0.000E+00  1.533E-04  9.506E+02  5.664E+03  0.000E+00  0.000E+00  0.000E+00
    Material I.D.=           1  Unblocked  Area=  0.0000E+00    Blocked  Area=  0.0000E+00    Leakage      =  0.0000E+00
    Material I.D.=           1  Unblocked  Area=  0.0000E+00    Blocked  Area=  0.0000E+00    Leakage      =  0.0000E+00


      time   airbag/cv #  volume        pressure    internal energy      dm/dt in      density dm/dt out  total mass gas temp. surface area   reaction dm/dt outp dm/dt outv
 3.59997E+01       1     3.0151E+04     3.8104E-04     2.8751E+01     0.0000E+00     5.0857E-09  0.000E+00  1.533E-04  9.556E+02  5.704E+03  0.000E+00  0.000E+00  0.000E+00
    Material I.D.=           1  Unblocked  Area=  0.0000E+00    Blocked  Area=  0.0000E+00    Leakage      =  0.0000E+00
    Material I.D.=           1  Unblocked  Area=  0.0000E+00    Blocked  Area=  0.0000E+00    Leakage      =  0.0000E+00


      time   airbag/cv #  volume        pressure    internal energy      dm/dt in      density dm/dt out  total mass gas temp. surface area   reaction dm/dt outp dm/dt outv
 3.64999E+01       1     3.0281E+04     3.7875E-04     2.8701E+01     0.0000E+00     5.0639E-09  0.000E+00  1.533E-04  9.540E+02  5.705E+03  0.000E+00  0.000E+00  0.000E+00
    Material I.D.=           1  Unblocked  Area=  0.0000E+00    Blocked  Area=  0.0000E+00    Leakage      =  0.0000E+00
    Material I.D.=           1  Unblocked  Area=  0.0000E+00    Blocked  Area=  0.0000E+00    Leakage      =  0.0000E+00


      time   airbag/cv #  volume        pressure    internal energy      dm/dt in      density dm/dt out  total mass gas temp. surface area   reaction dm/dt outp dm/dt outv
 3.70000E+01       1     3.0098E+04     3.8197E-04     2.8771E+01     0.0000E+00     5.0947E-09  0.000E+00  1.533E-04  9.563E+02  5.707E+03  0.000E+00  0.000E+00  0.000E+00
    Material I.D.=           1  Unblocked  Area=  0.0000E+00    Blocked  Area=  0.0000E+00    Leakage      =  0.0000E+00
    Material I.D.=           1  Unblocked  Area=  0.0000E+00    Blocked  Area=  0.0000E+00    Leakage      =  0.0000E+00


      time   airbag/cv #  volume        pressure    internal energy      dm/dt in      density dm/dt out  total mass gas temp. surface area   reaction dm/dt outp dm/dt outv
 3.74995E+01       1     3.0414E+04     3.7643E-04     2.8651E+01     0.0000E+00     5.0417E-09  0.000E+00  1.533E-04  9.523E+02  5.715E+03  0.000E+00  0.000E+00  0.000E+00
    Material I.D.=           1  Unblocked  Area=  0.0000E+00    Blocked  Area=  0.0000E+00    Leakage      =  0.0000E+00
    Material I.D.=           1  Unblocked  Area=  0.0000E+00    Blocked  Area=  0.0000E+00    Leakage      =  0.0000E+00


      time   airbag/cv #  volume        pressure    internal energy      dm/dt in      density dm/dt out  total mass gas temp. surface area   reaction dm/dt outp dm/dt outv
 3.79997E+01       1     3.0503E+04     3.7490E-04     2.8618E+01     0.0000E+00     5.0271E-09  0.000E+00  1.533E-04  9.512E+02  5.704E+03  0.000E+00  0.000E+00  0.000E+00
    Material I.D.=           1  Unblocked  Area=  0.0000E+00    Blocked  Area=  0.0000E+00    Leakage      =  0.0000E+00
    Material I.D.=           1  Unblocked  Area=  0.0000E+00    Blocked  Area=  0.0000E+00    Leakage      =  0.0000E+00


      time   airbag/cv #  volume        pressure    internal energy      dm/dt in      density dm/dt out  total mass gas temp. surface area   reaction dm/dt outp dm/dt outv
 3.84998E+01       1     3.0240E+04     3.7948E-04     2.8717E+01     0.0000E+00     5.0709E-09  0.000E+00  1.533E-04  9.545E+02  5.686E+03  0.000E+00  0.000E+00  0.000E+00
    Material I.D.=           1  Unblocked  Area=  0.0000E+00    Blocked  Area=  0.0000E+00    Leakage      =  0.0000E+00
    Material I.D.=           1  Unblocked  Area=  0.0000E+00    Blocked  Area=  0.0000E+00    Leakage      =  0.0000E+00


      time   airbag/cv #  volume        pressure    internal energy      dm/dt in      density dm/dt out  total mass gas temp. surface area   reaction dm/dt outp dm/dt outv
 3.89999E+01       1     3.0619E+04     3.7291E-04     2.8575E+01     0.0000E+00     5.0080E-09  0.000E+00  1.533E-04  9.498E+02  5.673E+03  0.000E+00  0.000E+00  0.000E+00
    Material I.D.=           1  Unblocked  Area=  0.0000E+00    Blocked  Area=  0.0000E+00    Leakage      =  0.0000E+00
    Material I.D.=           1  Unblocked  Area=  0.0000E+00    Blocked  Area=  0.0000E+00    Leakage      =  0.0000E+00


      time   airbag/cv #  volume        pressure    internal energy      dm/dt in      density dm/dt out  total mass gas temp. surface area   reaction dm/dt outp dm/dt outv
 3.94994E+01       1     3.0247E+04     3.7935E-04     2.8715E+01     0.0000E+00     5.0697E-09  0.000E+00  1.533E-04  9.544E+02  5.695E+03  0.000E+00  0.000E+00  0.000E+00
    Material I.D.=           1  Unblocked  Area=  0.0000E+00    Blocked  Area=  0.0000E+00    Leakage      =  0.0000E+00
    Material I.D.=           1  Unblocked  Area=  0.0000E+00    Blocked  Area=  0.0000E+00    Leakage      =  0.0000E+00


      time   airbag/cv #  volume        pressure    internal energy      dm/dt in      density dm/dt out  total mass gas temp. surface area   reaction dm/dt outp dm/dt outv
 3.99996E+01       1     3.0005E+04     3.8364E-04     2.8807E+01     0.0000E+00     5.1106E-09  0.000E+00  1.533E-04  9.575E+02  5.710E+03  0.000E+00  0.000E+00  0.000E+00
    Material I.D.=           1  Unblocked  Area=  0.0000E+00    Blocked  Area=  0.0000E+00    Leakage      =  0.0000E+00
    Material I.D.=           1  Unblocked  Area=  0.0000E+00    Blocked  Area=  0.0000E+00    Leakage      =  0.0000E+00
