 LS-DYNA keyword deck by LS-PrePost                                      
                    ls-dyna smp d R13 R13.1.1_27_8731a0 date 07/28/2023


      time   airbag/cv #  volume        pressure    internal energy      dm/dt in      density dm/dt out  total mass gas temp. surface area   reaction dm/dt outp dm/dt outv
 1.10000E-07       1     2.7269E+03     1.0130E-04     6.9130E-01     5.5000E-14     1.2250E-09  0.000E+00  3.341E-06  1.055E+03  5.614E+03  0.000E+00  0.000E+00  0.000E+00
    Material I.D.=           1  Unblocked  Area=  0.0000E+00    Blocked  Area=  0.0000E+00    Leakage      =  0.0000E+00
    Material I.D.=           1  Unblocked  Area=  0.0000E+00    Blocked  Area=  0.0000E+00    Leakage      =  0.0000E+00


      time   airbag/cv #  volume        pressure    internal energy      dm/dt in      density dm/dt out  total mass gas temp. surface area   reaction dm/dt outp dm/dt outv
 4.99982E-01       1     2.7651E+03     1.0133E-04     7.0117E-01     2.4999E-07     1.2307E-09  0.000E+00  3.403E-06  1.050E+03  5.614E+03  0.000E+00  0.000E+00  0.000E+00
    Material I.D.=           1  Unblocked  Area=  0.0000E+00    Blocked  Area=  0.0000E+00    Leakage      =  0.0000E+00
    Material I.D.=           1  Unblocked  Area=  0.0000E+00    Blocked  Area=  0.0000E+00    Leakage      =  0.0000E+00


      time   airbag/cv #  volume        pressure    internal energy      dm/dt in      density dm/dt out  total mass gas temp. surface area   reaction dm/dt outp dm/dt outv
 9.99857E-01       1     2.8811E+03     1.0133E-04     7.3060E-01     4.9993E-07     1.2462E-09  0.000E+00  3.590E-06  1.037E+03  5.614E+03  0.000E+00  0.000E+00  0.000E+00
    Material I.D.=           1  Unblocked  Area=  0.0000E+00    Blocked  Area=  0.0000E+00    Leakage      =  0.0000E+00
    Material I.D.=           1  Unblocked  Area=  0.0000E+00    Blocked  Area=  0.0000E+00    Leakage      =  0.0000E+00


      time   airbag/cv #  volume        pressure    internal energy      dm/dt in      density dm/dt out  total mass gas temp. surface area   reaction dm/dt outp dm/dt outv
 1.49993E+00       1     3.0750E+03     1.0131E-04     7.7961E-01     7.4996E-07     1.2693E-09  0.000E+00  3.903E-06  1.018E+03  5.614E+03  0.000E+00  0.000E+00  0.000E+00
    Material I.D.=           1  Unblocked  Area=  0.0000E+00    Blocked  Area=  0.0000E+00    Leakage      =  0.0000E+00
    Material I.D.=           1  Unblocked  Area=  0.0000E+00    Blocked  Area=  0.0000E+00    Leakage      =  0.0000E+00


      time   airbag/cv #  volume        pressure    internal energy      dm/dt in      density dm/dt out  total mass gas temp. surface area   reaction dm/dt outp dm/dt outv
 2.00000E+00       1     3.3458E+03     1.0131E-04     8.4830E-01     1.0000E-06     1.2973E-09  0.000E+00  4.341E-06  9.961E+02  5.613E+03  0.000E+00  0.000E+00  0.000E+00
    Material I.D.=           1  Unblocked  Area=  0.0000E+00    Blocked  Area=  0.0000E+00    Leakage      =  0.0000E+00
    Material I.D.=           1  Unblocked  Area=  0.0000E+00    Blocked  Area=  0.0000E+00    Leakage      =  0.0000E+00


      time   airbag/cv #  volume        pressure    internal energy      dm/dt in      density dm/dt out  total mass gas temp. surface area   reaction dm/dt outp dm/dt outv
 2.49987E+00       1     3.6938E+03     1.0132E-04     9.3659E-01     1.2499E-06     1.3274E-09  0.000E+00  4.903E-06  9.736E+02  5.613E+03  0.000E+00  0.000E+00  0.000E+00
    Material I.D.=           1  Unblocked  Area=  0.0000E+00    Blocked  Area=  0.0000E+00    Leakage      =  0.0000E+00
    Material I.D.=           1  Unblocked  Area=  0.0000E+00    Blocked  Area=  0.0000E+00    Leakage      =  0.0000E+00


      time   airbag/cv #  volume        pressure    internal energy      dm/dt in      density dm/dt out  total mass gas temp. surface area   reaction dm/dt outp dm/dt outv
 2.99994E+00       1     4.1192E+03     1.0133E-04     1.0445E+00     1.5000E-06     1.3572E-09  0.000E+00  5.591E-06  9.523E+02  5.613E+03  0.000E+00  0.000E+00  0.000E+00
    Material I.D.=           1  Unblocked  Area=  0.0000E+00    Blocked  Area=  0.0000E+00    Leakage      =  0.0000E+00
    Material I.D.=           1  Unblocked  Area=  0.0000E+00    Blocked  Area=  0.0000E+00    Leakage      =  0.0000E+00


      time   airbag/cv #  volume        pressure    internal energy      dm/dt in      density dm/dt out  total mass gas temp. surface area   reaction dm/dt outp dm/dt outv
 3.49982E+00       1     4.6217E+03     1.0134E-04     1.1721E+00     1.7499E-06     1.3854E-09  0.000E+00  6.403E-06  9.330E+02  5.612E+03  0.000E+00  0.000E+00  0.000E+00
    Material I.D.=           1  Unblocked  Area=  0.0000E+00    Blocked  Area=  0.0000E+00    Leakage      =  0.0000E+00
    Material I.D.=           1  Unblocked  Area=  0.0000E+00    Blocked  Area=  0.0000E+00    Leakage      =  0.0000E+00


      time   airbag/cv #  volume        pressure    internal energy      dm/dt in      density dm/dt out  total mass gas temp. surface area   reaction dm/dt outp dm/dt outv
 3.99989E+00       1     5.2008E+03     1.0137E-04     1.3193E+00     1.9999E-06     1.4114E-09  0.000E+00  7.340E-06  9.161E+02  5.611E+03  0.000E+00  0.000E+00  0.000E+00
    Material I.D.=           1  Unblocked  Area=  0.0000E+00    Blocked  Area=  0.0000E+00    Leakage      =  0.0000E+00
    Material I.D.=           1  Unblocked  Area=  0.0000E+00    Blocked  Area=  0.0000E+00    Leakage      =  0.0000E+00


      time   airbag/cv #  volume        pressure    internal energy      dm/dt in      density dm/dt out  total mass gas temp. surface area   reaction dm/dt outp dm/dt outv
 4.49996E+00       1     5.8389E+03     1.0183E-04     1.4880E+00     2.2500E-06     1.4392E-09  0.000E+00  8.403E-06  9.025E+02  5.606E+03  0.000E+00  0.000E+00  0.000E+00
    Material I.D.=           1  Unblocked  Area=  0.0000E+00    Blocked  Area=  0.0000E+00    Leakage      =  0.0000E+00
    Material I.D.=           1  Unblocked  Area=  0.0000E+00    Blocked  Area=  0.0000E+00    Leakage      =  0.0000E+00


      time   airbag/cv #  volume        pressure    internal energy      dm/dt in      density dm/dt out  total mass gas temp. surface area   reaction dm/dt outp dm/dt outv
 4.99984E+00       1     6.5987E+03     1.0123E-04     1.6717E+00     2.4999E-06     1.4534E-09  0.000E+00  9.590E-06  8.885E+02  5.601E+03  0.000E+00  0.000E+00  0.000E+00
    Material I.D.=           1  Unblocked  Area=  0.0000E+00    Blocked  Area=  0.0000E+00    Leakage      =  0.0000E+00
    Material I.D.=           1  Unblocked  Area=  0.0000E+00    Blocked  Area=  0.0000E+00    Leakage      =  0.0000E+00


      time   airbag/cv #  volume        pressure    internal energy      dm/dt in      density dm/dt out  total mass gas temp. surface area   reaction dm/dt outp dm/dt outv
 5.49991E+00       1     7.3963E+03     1.0152E-04     1.8792E+00     2.7500E-06     1.4741E-09  0.000E+00  1.090E-05  8.784E+02  5.596E+03  0.000E+00  0.000E+00  0.000E+00
    Material I.D.=           1  Unblocked  Area=  0.0000E+00    Blocked  Area=  0.0000E+00    Leakage      =  0.0000E+00
    Material I.D.=           1  Unblocked  Area=  0.0000E+00    Blocked  Area=  0.0000E+00    Leakage      =  0.0000E+00


      time   airbag/cv #  volume        pressure    internal energy      dm/dt in      density dm/dt out  total mass gas temp. surface area   reaction dm/dt outp dm/dt outv
 5.99998E+00       1     8.2834E+03     1.0154E-04     2.1050E+00     3.0000E-06     1.4898E-09  0.000E+00  1.234E-05  8.694E+02  5.589E+03  0.000E+00  0.000E+00  0.000E+00
    Material I.D.=           1  Unblocked  Area=  0.0000E+00    Blocked  Area=  0.0000E+00    Leakage      =  0.0000E+00
    Material I.D.=           1  Unblocked  Area=  0.0000E+00    Blocked  Area=  0.0000E+00    Leakage      =  0.0000E+00


      time   airbag/cv #  volume        pressure    internal energy      dm/dt in      density dm/dt out  total mass gas temp. surface area   reaction dm/dt outp dm/dt outv
 6.49986E+00       1     9.2462E+03     1.0158E-04     2.3504E+00     3.2499E-06     1.5036E-09  0.000E+00  1.390E-05  8.617E+02  5.583E+03  0.000E+00  0.000E+00  0.000E+00
    Material I.D.=           1  Unblocked  Area=  0.0000E+00    Blocked  Area=  0.0000E+00    Leakage      =  0.0000E+00
    Material I.D.=           1  Unblocked  Area=  0.0000E+00    Blocked  Area=  0.0000E+00    Leakage      =  0.0000E+00


      time   airbag/cv #  volume        pressure    internal energy      dm/dt in      density dm/dt out  total mass gas temp. surface area   reaction dm/dt outp dm/dt outv
 6.99993E+00       1     1.0270E+04     1.0183E-04     2.6170E+00     3.5000E-06     1.5181E-09  0.000E+00  1.559E-05  8.555E+02  5.575E+03  0.000E+00  0.000E+00  0.000E+00
    Material I.D.=           1  Unblocked  Area=  0.0000E+00    Blocked  Area=  0.0000E+00    Leakage      =  0.0000E+00
    Material I.D.=           1  Unblocked  Area=  0.0000E+00    Blocked  Area=  0.0000E+00    Leakage      =  0.0000E+00


      time   airbag/cv #  volume        pressure    internal energy      dm/dt in      density dm/dt out  total mass gas temp. surface area   reaction dm/dt outp dm/dt outv
 7.49981E+00       1     1.1370E+04     1.0203E-04     2.9030E+00     3.7499E-06     1.5306E-09  0.000E+00  1.740E-05  8.502E+02  5.562E+03  0.000E+00  0.000E+00  0.000E+00
    Material I.D.=           1  Unblocked  Area=  0.0000E+00    Blocked  Area=  0.0000E+00    Leakage      =  0.0000E+00
    Material I.D.=           1  Unblocked  Area=  0.0000E+00    Blocked  Area=  0.0000E+00    Leakage      =  0.0000E+00


      time   airbag/cv #  volume        pressure    internal energy      dm/dt in      density dm/dt out  total mass gas temp. surface area   reaction dm/dt outp dm/dt outv
 7.99989E+00       1     1.2523E+04     1.0245E-04     3.2108E+00     3.9999E-06     1.5443E-09  0.000E+00  1.934E-05  8.462E+02  5.544E+03  0.000E+00  0.000E+00  0.000E+00
    Material I.D.=           1  Unblocked  Area=  0.0000E+00    Blocked  Area=  0.0000E+00    Leakage      =  0.0000E+00
    Material I.D.=           1  Unblocked  Area=  0.0000E+00    Blocked  Area=  0.0000E+00    Leakage      =  0.0000E+00


      time   airbag/cv #  volume        pressure    internal energy      dm/dt in      density dm/dt out  total mass gas temp. surface area   reaction dm/dt outp dm/dt outv
 8.49996E+00       1     1.3713E+04     1.0320E-04     3.5417E+00     4.2500E-06     1.5608E-09  0.000E+00  2.140E-05  8.434E+02  5.520E+03  0.000E+00  0.000E+00  0.000E+00
    Material I.D.=           1  Unblocked  Area=  0.0000E+00    Blocked  Area=  0.0000E+00    Leakage      =  0.0000E+00
    Material I.D.=           1  Unblocked  Area=  0.0000E+00    Blocked  Area=  0.0000E+00    Leakage      =  0.0000E+00


      time   airbag/cv #  volume        pressure    internal energy      dm/dt in      density dm/dt out  total mass gas temp. surface area   reaction dm/dt outp dm/dt outv
 8.99984E+00       1     1.4877E+04     1.0479E-04     3.9013E+00     4.4999E-06     1.5857E-09  0.000E+00  2.359E-05  8.429E+02  5.489E+03  0.000E+00  0.000E+00  0.000E+00
    Material I.D.=           1  Unblocked  Area=  0.0000E+00    Blocked  Area=  0.0000E+00    Leakage      =  0.0000E+00
    Material I.D.=           1  Unblocked  Area=  0.0000E+00    Blocked  Area=  0.0000E+00    Leakage      =  0.0000E+00


      time   airbag/cv #  volume        pressure    internal energy      dm/dt in      density dm/dt out  total mass gas temp. surface area   reaction dm/dt outp dm/dt outv
 9.49991E+00       1     1.5892E+04     1.0816E-04     4.3015E+00     4.7500E-06     1.6299E-09  0.000E+00  2.590E-05  8.464E+02  5.455E+03  0.000E+00  0.000E+00  0.000E+00
    Material I.D.=           1  Unblocked  Area=  0.0000E+00    Blocked  Area=  0.0000E+00    Leakage      =  0.0000E+00
    Material I.D.=           1  Unblocked  Area=  0.0000E+00    Blocked  Area=  0.0000E+00    Leakage      =  0.0000E+00


      time   airbag/cv #  volume        pressure    internal energy      dm/dt in      density dm/dt out  total mass gas temp. surface area   reaction dm/dt outp dm/dt outv
 9.99997E+00       1     1.6596E+04     1.1459E-04     4.7591E+00     5.0000E-06     1.7076E-09  0.000E+00  2.834E-05  8.559E+02  5.421E+03  0.000E+00  0.000E+00  0.000E+00
    Material I.D.=           1  Unblocked  Area=  0.0000E+00    Blocked  Area=  0.0000E+00    Leakage      =  0.0000E+00
    Material I.D.=           1  Unblocked  Area=  0.0000E+00    Blocked  Area=  0.0000E+00    Leakage      =  0.0000E+00


      time   airbag/cv #  volume        pressure    internal energy      dm/dt in      density dm/dt out  total mass gas temp. surface area   reaction dm/dt outp dm/dt outv
 1.04998E+01       1     1.6997E+04     1.2400E-04     5.2745E+00     5.2499E-06     1.8181E-09  0.000E+00  3.090E-05  8.699E+02  5.403E+03  0.000E+00  0.000E+00  0.000E+00
    Material I.D.=           1  Unblocked  Area=  0.0000E+00    Blocked  Area=  0.0000E+00    Leakage      =  0.0000E+00
    Material I.D.=           1  Unblocked  Area=  0.0000E+00    Blocked  Area=  0.0000E+00    Leakage      =  0.0000E+00


      time   airbag/cv #  volume        pressure    internal energy      dm/dt in      density dm/dt out  total mass gas temp. surface area   reaction dm/dt outp dm/dt outv
 1.09999E+01       1     1.7148E+04     1.3621E-04     5.8452E+00     5.5000E-06     1.9588E-09  0.000E+00  3.359E-05  8.869E+02  5.397E+03  0.000E+00  0.000E+00  0.000E+00
    Material I.D.=           1  Unblocked  Area=  0.0000E+00    Blocked  Area=  0.0000E+00    Leakage      =  0.0000E+00
    Material I.D.=           1  Unblocked  Area=  0.0000E+00    Blocked  Area=  0.0000E+00    Leakage      =  0.0000E+00


      time   airbag/cv #  volume        pressure    internal energy      dm/dt in      density dm/dt out  total mass gas temp. surface area   reaction dm/dt outp dm/dt outv
 1.15000E+01       1     1.7456E+04     1.4694E-04     6.4192E+00     5.7500E-06     2.0854E-09  0.000E+00  3.640E-05  8.988E+02  5.431E+03  0.000E+00  0.000E+00  0.000E+00
    Material I.D.=           1  Unblocked  Area=  0.0000E+00    Blocked  Area=  0.0000E+00    Leakage      =  0.0000E+00
    Material I.D.=           1  Unblocked  Area=  0.0000E+00    Blocked  Area=  0.0000E+00    Leakage      =  0.0000E+00


      time   airbag/cv #  volume        pressure    internal energy      dm/dt in      density dm/dt out  total mass gas temp. surface area   reaction dm/dt outp dm/dt outv
 1.19998E+01       1     1.7800E+04     1.5741E-04     7.0119E+00     5.9999E-06     2.2101E-09  0.000E+00  3.934E-05  9.085E+02  5.481E+03  0.000E+00  0.000E+00  0.000E+00
    Material I.D.=           1  Unblocked  Area=  0.0000E+00    Blocked  Area=  0.0000E+00    Leakage      =  0.0000E+00
    Material I.D.=           1  Unblocked  Area=  0.0000E+00    Blocked  Area=  0.0000E+00    Leakage      =  0.0000E+00


      time   airbag/cv #  volume        pressure    internal energy      dm/dt in      density dm/dt out  total mass gas temp. surface area   reaction dm/dt outp dm/dt outv
 1.24998E+01       1     1.7921E+04     1.7091E-04     7.6650E+00     6.2499E-06     2.3661E-09  0.000E+00  4.240E-05  9.213E+02  5.518E+03  0.000E+00  0.000E+00  0.000E+00
    Material I.D.=           1  Unblocked  Area=  0.0000E+00    Blocked  Area=  0.0000E+00    Leakage      =  0.0000E+00
    Material I.D.=           1  Unblocked  Area=  0.0000E+00    Blocked  Area=  0.0000E+00    Leakage      =  0.0000E+00


      time   airbag/cv #  volume        pressure    internal energy      dm/dt in      density dm/dt out  total mass gas temp. surface area   reaction dm/dt outp dm/dt outv
 1.29999E+01       1     1.8166E+04     1.8306E-04     8.3222E+00     6.4999E-06     2.5097E-09  0.000E+00  4.559E-05  9.304E+02  5.522E+03  0.000E+00  0.000E+00  0.000E+00
    Material I.D.=           1  Unblocked  Area=  0.0000E+00    Blocked  Area=  0.0000E+00    Leakage      =  0.0000E+00
    Material I.D.=           1  Unblocked  Area=  0.0000E+00    Blocked  Area=  0.0000E+00    Leakage      =  0.0000E+00


      time   airbag/cv #  volume        pressure    internal energy      dm/dt in      density dm/dt out  total mass gas temp. surface area   reaction dm/dt outp dm/dt outv
 1.34999E+01       1     1.8236E+04     1.9802E-04     9.0370E+00     6.7499E-06     2.6816E-09  0.000E+00  4.890E-05  9.419E+02  5.526E+03  0.000E+00  0.000E+00  0.000E+00
    Material I.D.=           1  Unblocked  Area=  0.0000E+00    Blocked  Area=  0.0000E+00    Leakage      =  0.0000E+00
    Material I.D.=           1  Unblocked  Area=  0.0000E+00    Blocked  Area=  0.0000E+00    Leakage      =  0.0000E+00


      time   airbag/cv #  volume        pressure    internal energy      dm/dt in      density dm/dt out  total mass gas temp. surface area   reaction dm/dt outp dm/dt outv
 1.39998E+01       1     1.8388E+04     2.1213E-04     9.7613E+00     6.9999E-06     2.8465E-09  0.000E+00  5.234E-05  9.506E+02  5.544E+03  0.000E+00  0.000E+00  0.000E+00
    Material I.D.=           1  Unblocked  Area=  0.0000E+00    Blocked  Area=  0.0000E+00    Leakage      =  0.0000E+00
    Material I.D.=           1  Unblocked  Area=  0.0000E+00    Blocked  Area=  0.0000E+00    Leakage      =  0.0000E+00


      time   airbag/cv #  volume        pressure    internal energy      dm/dt in      density dm/dt out  total mass gas temp. surface area   reaction dm/dt outp dm/dt outv
 1.45000E+01       1     1.8578E+04     2.2588E-04     1.0502E+01     7.2500E-06     3.0090E-09  0.000E+00  5.590E-05  9.575E+02  5.555E+03  0.000E+00  0.000E+00  0.000E+00
    Material I.D.=           1  Unblocked  Area=  0.0000E+00    Blocked  Area=  0.0000E+00    Leakage      =  0.0000E+00
    Material I.D.=           1  Unblocked  Area=  0.0000E+00    Blocked  Area=  0.0000E+00    Leakage      =  0.0000E+00


      time   airbag/cv #  volume        pressure    internal energy      dm/dt in      density dm/dt out  total mass gas temp. surface area   reaction dm/dt outp dm/dt outv
 1.49999E+01       1     1.8607E+04     2.4279E-04     1.1305E+01     7.5000E-06     3.2026E-09  0.000E+00  5.959E-05  9.670E+02  5.559E+03  0.000E+00  0.000E+00  0.000E+00
    Material I.D.=           1  Unblocked  Area=  0.0000E+00    Blocked  Area=  0.0000E+00    Leakage      =  0.0000E+00
    Material I.D.=           1  Unblocked  Area=  0.0000E+00    Blocked  Area=  0.0000E+00    Leakage      =  0.0000E+00


      time   airbag/cv #  volume        pressure    internal energy      dm/dt in      density dm/dt out  total mass gas temp. surface area   reaction dm/dt outp dm/dt outv
 1.54998E+01       1     1.8800E+04     2.5707E-04     1.2095E+01     7.7499E-06     3.3725E-09  0.000E+00  6.340E-05  9.723E+02  5.569E+03  0.000E+00  0.000E+00  0.000E+00
    Material I.D.=           1  Unblocked  Area=  0.0000E+00    Blocked  Area=  0.0000E+00    Leakage      =  0.0000E+00
    Material I.D.=           1  Unblocked  Area=  0.0000E+00    Blocked  Area=  0.0000E+00    Leakage      =  0.0000E+00


      time   airbag/cv #  volume        pressure    internal energy      dm/dt in      density dm/dt out  total mass gas temp. surface area   reaction dm/dt outp dm/dt outv
 1.59999E+01       1     1.8857E+04     2.7430E-04     1.2944E+01     7.9999E-06     3.5711E-09  0.000E+00  6.734E-05  9.797E+02  5.580E+03  0.000E+00  0.000E+00  0.000E+00
    Material I.D.=           1  Unblocked  Area=  0.0000E+00    Blocked  Area=  0.0000E+00    Leakage      =  0.0000E+00
    Material I.D.=           1  Unblocked  Area=  0.0000E+00    Blocked  Area=  0.0000E+00    Leakage      =  0.0000E+00


      time   airbag/cv #  volume        pressure    internal energy      dm/dt in      density dm/dt out  total mass gas temp. surface area   reaction dm/dt outp dm/dt outv
 1.64999E+01       1     1.8978E+04     2.9063E-04     1.3803E+01     8.2500E-06     3.7623E-09  0.000E+00  7.140E-05  9.853E+02  5.601E+03  0.000E+00  0.000E+00  0.000E+00
    Material I.D.=           1  Unblocked  Area=  0.0000E+00    Blocked  Area=  0.0000E+00    Leakage      =  0.0000E+00
    Material I.D.=           1  Unblocked  Area=  0.0000E+00    Blocked  Area=  0.0000E+00    Leakage      =  0.0000E+00


      time   airbag/cv #  volume        pressure    internal energy      dm/dt in      density dm/dt out  total mass gas temp. surface area   reaction dm/dt outp dm/dt outv
 1.69999E+01       1     1.9178E+04     3.0553E-04     1.4664E+01     8.5000E-06     3.9415E-09  0.000E+00  7.559E-05  9.887E+02  5.608E+03  0.000E+00  0.000E+00  0.000E+00
    Material I.D.=           1  Unblocked  Area=  0.0000E+00    Blocked  Area=  0.0000E+00    Leakage      =  0.0000E+00
    Material I.D.=           1  Unblocked  Area=  0.0000E+00    Blocked  Area=  0.0000E+00    Leakage      =  0.0000E+00


      time   airbag/cv #  volume        pressure    internal energy      dm/dt in      density dm/dt out  total mass gas temp. surface area   reaction dm/dt outp dm/dt outv
 1.74999E+01       1     1.9153E+04     3.2586E-04     1.5619E+01     8.7500E-06     4.1718E-09  0.000E+00  7.990E-05  9.963E+02  5.609E+03  0.000E+00  0.000E+00  0.000E+00
    Material I.D.=           1  Unblocked  Area=  0.0000E+00    Blocked  Area=  0.0000E+00    Leakage      =  0.0000E+00
    Material I.D.=           1  Unblocked  Area=  0.0000E+00    Blocked  Area=  0.0000E+00    Leakage      =  0.0000E+00


      time   airbag/cv #  volume        pressure    internal energy      dm/dt in      density dm/dt out  total mass gas temp. surface area   reaction dm/dt outp dm/dt outv
 1.79999E+01       1     1.9329E+04     3.4185E-04     1.6536E+01     9.0000E-06     4.3634E-09  0.000E+00  8.434E-05  9.993E+02  5.619E+03  0.000E+00  0.000E+00  0.000E+00
    Material I.D.=           1  Unblocked  Area=  0.0000E+00    Blocked  Area=  0.0000E+00    Leakage      =  0.0000E+00
    Material I.D.=           1  Unblocked  Area=  0.0000E+00    Blocked  Area=  0.0000E+00    Leakage      =  0.0000E+00


      time   airbag/cv #  volume        pressure    internal energy      dm/dt in      density dm/dt out  total mass gas temp. surface area   reaction dm/dt outp dm/dt outv
 1.84998E+01       1     1.9389E+04     3.6103E-04     1.7518E+01     9.2499E-06     4.5853E-09  0.000E+00  8.890E-05  1.004E+03  5.644E+03  0.000E+00  0.000E+00  0.000E+00
    Material I.D.=           1  Unblocked  Area=  0.0000E+00    Blocked  Area=  0.0000E+00    Leakage      =  0.0000E+00
    Material I.D.=           1  Unblocked  Area=  0.0000E+00    Blocked  Area=  0.0000E+00    Leakage      =  0.0000E+00


      time   airbag/cv #  volume        pressure    internal energy      dm/dt in      density dm/dt out  total mass gas temp. surface area   reaction dm/dt outp dm/dt outv
 1.89999E+01       1     1.9493E+04     3.7946E-04     1.8511E+01     9.5000E-06     4.8013E-09  0.000E+00  9.359E-05  1.008E+03  5.648E+03  0.000E+00  0.000E+00  0.000E+00
    Material I.D.=           1  Unblocked  Area=  0.0000E+00    Blocked  Area=  0.0000E+00    Leakage      =  0.0000E+00
    Material I.D.=           1  Unblocked  Area=  0.0000E+00    Blocked  Area=  0.0000E+00    Leakage      =  0.0000E+00


      time   airbag/cv #  volume        pressure    internal energy      dm/dt in      density dm/dt out  total mass gas temp. surface area   reaction dm/dt outp dm/dt outv
 1.94998E+01       1     1.9563E+04     3.9915E-04     1.9541E+01     9.7499E-06     5.0300E-09  0.000E+00  9.840E-05  1.012E+03  5.653E+03  0.000E+00  0.000E+00  0.000E+00
    Material I.D.=           1  Unblocked  Area=  0.0000E+00    Blocked  Area=  0.0000E+00    Leakage      =  0.0000E+00
    Material I.D.=           1  Unblocked  Area=  0.0000E+00    Blocked  Area=  0.0000E+00    Leakage      =  0.0000E+00


      time   airbag/cv #  volume        pressure    internal energy      dm/dt in      density dm/dt out  total mass gas temp. surface area   reaction dm/dt outp dm/dt outv
 1.99999E+01       1     1.9721E+04     4.1666E-04     2.0563E+01     9.9999E-06     5.2402E-09  0.000E+00  1.033E-04  1.014E+03  5.673E+03  0.000E+00  0.000E+00  0.000E+00
    Material I.D.=           1  Unblocked  Area=  0.0000E+00    Blocked  Area=  0.0000E+00    Leakage      =  0.0000E+00
    Material I.D.=           1  Unblocked  Area=  0.0000E+00    Blocked  Area=  0.0000E+00    Leakage      =  0.0000E+00


      time   airbag/cv #  volume        pressure    internal energy      dm/dt in      density dm/dt out  total mass gas temp. surface area   reaction dm/dt outp dm/dt outv
 2.04999E+01       1     1.9840E+04     4.3471E-04     2.1584E+01     9.5001E-06     5.4544E-09  0.000E+00  1.082E-04  1.017E+03  5.682E+03  0.000E+00  0.000E+00  0.000E+00
    Material I.D.=           1  Unblocked  Area=  0.0000E+00    Blocked  Area=  0.0000E+00    Leakage      =  0.0000E+00
    Material I.D.=           1  Unblocked  Area=  0.0000E+00    Blocked  Area=  0.0000E+00    Leakage      =  0.0000E+00


      time   airbag/cv #  volume        pressure    internal energy      dm/dt in      density dm/dt out  total mass gas temp. surface area   reaction dm/dt outp dm/dt outv
 2.09998E+01       1     1.9923E+04     4.5255E-04     2.2563E+01     9.0002E-06     5.6638E-09  0.000E+00  1.128E-04  1.019E+03  5.689E+03  0.000E+00  0.000E+00  0.000E+00
    Material I.D.=           1  Unblocked  Area=  0.0000E+00    Blocked  Area=  0.0000E+00    Leakage      =  0.0000E+00
    Material I.D.=           1  Unblocked  Area=  0.0000E+00    Blocked  Area=  0.0000E+00    Leakage      =  0.0000E+00


      time   airbag/cv #  volume        pressure    internal energy      dm/dt in      density dm/dt out  total mass gas temp. surface area   reaction dm/dt outp dm/dt outv
 2.15000E+01       1     2.0029E+04     4.6836E-04     2.3476E+01     8.5000E-06     5.8522E-09  0.000E+00  1.172E-04  1.021E+03  5.698E+03  0.000E+00  0.000E+00  0.000E+00
    Material I.D.=           1  Unblocked  Area=  0.0000E+00    Blocked  Area=  0.0000E+00    Leakage      =  0.0000E+00
    Material I.D.=           1  Unblocked  Area=  0.0000E+00    Blocked  Area=  0.0000E+00    Leakage      =  0.0000E+00


      time   airbag/cv #  volume        pressure    internal energy      dm/dt in      density dm/dt out  total mass gas temp. surface area   reaction dm/dt outp dm/dt outv
 2.19999E+01       1     2.0145E+04     4.8256E-04     2.4328E+01     8.0001E-06     6.0234E-09  0.000E+00  1.213E-04  1.022E+03  5.710E+03  0.000E+00  0.000E+00  0.000E+00
    Material I.D.=           1  Unblocked  Area=  0.0000E+00    Blocked  Area=  0.0000E+00    Leakage      =  0.0000E+00
    Material I.D.=           1  Unblocked  Area=  0.0000E+00    Blocked  Area=  0.0000E+00    Leakage      =  0.0000E+00


      time   airbag/cv #  volume        pressure    internal energy      dm/dt in      density dm/dt out  total mass gas temp. surface area   reaction dm/dt outp dm/dt outv
 2.24999E+01       1     2.0259E+04     4.9554E-04     2.5123E+01     7.5001E-06     6.1808E-09  0.000E+00  1.252E-04  1.023E+03  5.721E+03  0.000E+00  0.000E+00  0.000E+00
    Material I.D.=           1  Unblocked  Area=  0.0000E+00    Blocked  Area=  0.0000E+00    Leakage      =  0.0000E+00
    Material I.D.=           1  Unblocked  Area=  0.0000E+00    Blocked  Area=  0.0000E+00    Leakage      =  0.0000E+00


      time   airbag/cv #  volume        pressure    internal energy      dm/dt in      density dm/dt out  total mass gas temp. surface area   reaction dm/dt outp dm/dt outv
 2.29999E+01       1     2.0287E+04     5.1025E-04     2.5905E+01     7.0001E-06     6.3509E-09  0.000E+00  1.288E-04  1.025E+03  5.728E+03  0.000E+00  0.000E+00  0.000E+00
    Material I.D.=           1  Unblocked  Area=  0.0000E+00    Blocked  Area=  0.0000E+00    Leakage      =  0.0000E+00
    Material I.D.=           1  Unblocked  Area=  0.0000E+00    Blocked  Area=  0.0000E+00    Leakage      =  0.0000E+00


      time   airbag/cv #  volume        pressure    internal energy      dm/dt in      density dm/dt out  total mass gas temp. surface area   reaction dm/dt outp dm/dt outv
 2.34999E+01       1     2.0357E+04     5.2233E-04     2.6610E+01     6.5001E-06     6.4947E-09  0.000E+00  1.322E-04  1.026E+03  5.734E+03  0.000E+00  0.000E+00  0.000E+00
    Material I.D.=           1  Unblocked  Area=  0.0000E+00    Blocked  Area=  0.0000E+00    Leakage      =  0.0000E+00
    Material I.D.=           1  Unblocked  Area=  0.0000E+00    Blocked  Area=  0.0000E+00    Leakage      =  0.0000E+00


      time   airbag/cv #  volume        pressure    internal energy      dm/dt in      density dm/dt out  total mass gas temp. surface area   reaction dm/dt outp dm/dt outv
 2.40000E+01       1     2.0494E+04     5.3083E-04     2.7225E+01     6.0000E-06     6.6040E-09  0.000E+00  1.353E-04  1.025E+03  5.743E+03  0.000E+00  0.000E+00  0.000E+00
    Material I.D.=           1  Unblocked  Area=  0.0000E+00    Blocked  Area=  0.0000E+00    Leakage      =  0.0000E+00
    Material I.D.=           1  Unblocked  Area=  0.0000E+00    Blocked  Area=  0.0000E+00    Leakage      =  0.0000E+00


      time   airbag/cv #  volume        pressure    internal energy      dm/dt in      density dm/dt out  total mass gas temp. surface area   reaction dm/dt outp dm/dt outv
 2.44999E+01       1     2.0479E+04     5.4371E-04     2.7865E+01     5.5001E-06     6.7493E-09  0.000E+00  1.382E-04  1.028E+03  5.747E+03  0.000E+00  0.000E+00  0.000E+00
    Material I.D.=           1  Unblocked  Area=  0.0000E+00    Blocked  Area=  0.0000E+00    Leakage      =  0.0000E+00
    Material I.D.=           1  Unblocked  Area=  0.0000E+00    Blocked  Area=  0.0000E+00    Leakage      =  0.0000E+00


      time   airbag/cv #  volume        pressure    internal energy      dm/dt in      density dm/dt out  total mass gas temp. surface area   reaction dm/dt outp dm/dt outv
 2.49999E+01       1     2.0576E+04     5.5129E-04     2.8388E+01     5.0001E-06     6.8447E-09  0.000E+00  1.408E-04  1.027E+03  5.760E+03  0.000E+00  0.000E+00  0.000E+00
    Material I.D.=           1  Unblocked  Area=  0.0000E+00    Blocked  Area=  0.0000E+00    Leakage      =  0.0000E+00
    Material I.D.=           1  Unblocked  Area=  0.0000E+00    Blocked  Area=  0.0000E+00    Leakage      =  0.0000E+00


      time   airbag/cv #  volume        pressure    internal energy      dm/dt in      density dm/dt out  total mass gas temp. surface area   reaction dm/dt outp dm/dt outv
 2.55000E+01       1     2.0616E+04     5.5992E-04     2.8888E+01     4.5000E-06     6.9468E-09  0.000E+00  1.432E-04  1.028E+03  5.760E+03  0.000E+00  0.000E+00  0.000E+00
    Material I.D.=           1  Unblocked  Area=  0.0000E+00    Blocked  Area=  0.0000E+00    Leakage      =  0.0000E+00
    Material I.D.=           1  Unblocked  Area=  0.0000E+00    Blocked  Area=  0.0000E+00    Leakage      =  0.0000E+00


      time   airbag/cv #  volume        pressure    internal energy      dm/dt in      density dm/dt out  total mass gas temp. surface area   reaction dm/dt outp dm/dt outv
 2.60000E+01       1     2.0644E+04     5.6791E-04     2.9339E+01     4.0000E-06     7.0405E-09  0.000E+00  1.453E-04  1.029E+03  5.765E+03  0.000E+00  0.000E+00  0.000E+00
    Material I.D.=           1  Unblocked  Area=  0.0000E+00    Blocked  Area=  0.0000E+00    Leakage      =  0.0000E+00
    Material I.D.=           1  Unblocked  Area=  0.0000E+00    Blocked  Area=  0.0000E+00    Leakage      =  0.0000E+00


      time   airbag/cv #  volume        pressure    internal energy      dm/dt in      density dm/dt out  total mass gas temp. surface area   reaction dm/dt outp dm/dt outv
 2.64999E+01       1     2.0709E+04     5.7336E-04     2.9714E+01     3.5001E-06     7.1089E-09  0.000E+00  1.472E-04  1.029E+03  5.774E+03  0.000E+00  0.000E+00  0.000E+00
    Material I.D.=           1  Unblocked  Area=  0.0000E+00    Blocked  Area=  0.0000E+00    Leakage      =  0.0000E+00
    Material I.D.=           1  Unblocked  Area=  0.0000E+00    Blocked  Area=  0.0000E+00    Leakage      =  0.0000E+00


      time   airbag/cv #  volume        pressure    internal energy      dm/dt in      density dm/dt out  total mass gas temp. surface area   reaction dm/dt outp dm/dt outv
 2.69998E+01       1     2.0709E+04     5.8026E-04     3.0071E+01     3.0002E-06     7.1874E-09  0.000E+00  1.488E-04  1.030E+03  5.770E+03  0.000E+00  0.000E+00  0.000E+00
    Material I.D.=           1  Unblocked  Area=  0.0000E+00    Blocked  Area=  0.0000E+00    Leakage      =  0.0000E+00
    Material I.D.=           1  Unblocked  Area=  0.0000E+00    Blocked  Area=  0.0000E+00    Leakage      =  0.0000E+00


      time   airbag/cv #  volume        pressure    internal energy      dm/dt in      density dm/dt out  total mass gas temp. surface area   reaction dm/dt outp dm/dt outv
 2.74999E+01       1     2.0794E+04     5.8272E-04     3.0324E+01     2.5001E-06     7.2240E-09  0.000E+00  1.502E-04  1.029E+03  5.776E+03  0.000E+00  0.000E+00  0.000E+00
    Material I.D.=           1  Unblocked  Area=  0.0000E+00    Blocked  Area=  0.0000E+00    Leakage      =  0.0000E+00
    Material I.D.=           1  Unblocked  Area=  0.0000E+00    Blocked  Area=  0.0000E+00    Leakage      =  0.0000E+00


      time   airbag/cv #  volume        pressure    internal energy      dm/dt in      density dm/dt out  total mass gas temp. surface area   reaction dm/dt outp dm/dt outv
 2.80000E+01       1     2.0803E+04     5.8711E-04     3.0565E+01     2.0000E-06     7.2749E-09  0.000E+00  1.513E-04  1.029E+03  5.782E+03  0.000E+00  0.000E+00  0.000E+00
    Material I.D.=           1  Unblocked  Area=  0.0000E+00    Blocked  Area=  0.0000E+00    Leakage      =  0.0000E+00
    Material I.D.=           1  Unblocked  Area=  0.0000E+00    Blocked  Area=  0.0000E+00    Leakage      =  0.0000E+00


      time   airbag/cv #  volume        pressure    internal energy      dm/dt in      density dm/dt out  total mass gas temp. surface area   reaction dm/dt outp dm/dt outv
 2.84998E+01       1     2.0828E+04     5.8981E-04     3.0743E+01     1.5002E-06     7.3081E-09  0.000E+00  1.522E-04  1.029E+03  5.779E+03  0.000E+00  0.000E+00  0.000E+00
    Material I.D.=           1  Unblocked  Area=  0.0000E+00    Blocked  Area=  0.0000E+00    Leakage      =  0.0000E+00
    Material I.D.=           1  Unblocked  Area=  0.0000E+00    Blocked  Area=  0.0000E+00    Leakage      =  0.0000E+00


      time   airbag/cv #  volume        pressure    internal energy      dm/dt in      density dm/dt out  total mass gas temp. surface area   reaction dm/dt outp dm/dt outv
 2.90000E+01       1     2.0826E+04     5.9252E-04     3.0881E+01     1.0000E-06     7.3388E-09  0.000E+00  1.528E-04  1.030E+03  5.782E+03  0.000E+00  0.000E+00  0.000E+00
    Material I.D.=           1  Unblocked  Area=  0.0000E+00    Blocked  Area=  0.0000E+00    Leakage      =  0.0000E+00
    Material I.D.=           1  Unblocked  Area=  0.0000E+00    Blocked  Area=  0.0000E+00    Leakage      =  0.0000E+00


      time   airbag/cv #  volume        pressure    internal energy      dm/dt in      density dm/dt out  total mass gas temp. surface area   reaction dm/dt outp dm/dt outv
 2.95000E+01       1     2.0809E+04     5.9477E-04     3.0974E+01     5.0002E-07     7.3628E-09  0.000E+00  1.532E-04  1.030E+03  5.779E+03  0.000E+00  0.000E+00  0.000E+00
    Material I.D.=           1  Unblocked  Area=  0.0000E+00    Blocked  Area=  0.0000E+00    Leakage      =  0.0000E+00
    Material I.D.=           1  Unblocked  Area=  0.0000E+00    Blocked  Area=  0.0000E+00    Leakage      =  0.0000E+00


      time   airbag/cv #  volume        pressure    internal energy      dm/dt in      density dm/dt out  total mass gas temp. surface area   reaction dm/dt outp dm/dt outv
 3.00000E+01       1     2.0875E+04     5.9268E-04     3.0962E+01     4.4988E-11     7.3456E-09  0.000E+00  1.533E-04  1.029E+03  5.788E+03  0.000E+00  0.000E+00  0.000E+00
    Material I.D.=           1  Unblocked  Area=  0.0000E+00    Blocked  Area=  0.0000E+00    Leakage      =  0.0000E+00
    Material I.D.=           1  Unblocked  Area=  0.0000E+00    Blocked  Area=  0.0000E+00    Leakage      =  0.0000E+00


      time   airbag/cv #  volume        pressure    internal energy      dm/dt in      density dm/dt out  total mass gas temp. surface area   reaction dm/dt outp dm/dt outv
 3.04999E+01       1     2.0827E+04     5.9460E-04     3.0991E+01     0.0000E+00     7.3626E-09  0.000E+00  1.533E-04  1.030E+03  5.781E+03  0.000E+00  0.000E+00  0.000E+00
    Material I.D.=           1  Unblocked  Area=  0.0000E+00    Blocked  Area=  0.0000E+00    Leakage      =  0.0000E+00
    Material I.D.=           1  Unblocked  Area=  0.0000E+00    Blocked  Area=  0.0000E+00    Leakage      =  0.0000E+00


      time   airbag/cv #  volume        pressure    internal energy      dm/dt in      density dm/dt out  total mass gas temp. surface area   reaction dm/dt outp dm/dt outv
 3.09999E+01       1     2.0822E+04     5.9478E-04     3.0994E+01     0.0000E+00     7.3642E-09  0.000E+00  1.533E-04  1.030E+03  5.779E+03  0.000E+00  0.000E+00  0.000E+00
    Material I.D.=           1  Unblocked  Area=  0.0000E+00    Blocked  Area=  0.0000E+00    Leakage      =  0.0000E+00
    Material I.D.=           1  Unblocked  Area=  0.0000E+00    Blocked  Area=  0.0000E+00    Leakage      =  0.0000E+00


      time   airbag/cv #  volume        pressure    internal energy      dm/dt in      density dm/dt out  total mass gas temp. surface area   reaction dm/dt outp dm/dt outv
 3.15000E+01       1     2.0856E+04     5.9344E-04     3.0974E+01     0.0000E+00     7.3523E-09  0.000E+00  1.533E-04  1.030E+03  5.778E+03  0.000E+00  0.000E+00  0.000E+00
    Material I.D.=           1  Unblocked  Area=  0.0000E+00    Blocked  Area=  0.0000E+00    Leakage      =  0.0000E+00
    Material I.D.=           1  Unblocked  Area=  0.0000E+00    Blocked  Area=  0.0000E+00    Leakage      =  0.0000E+00


      time   airbag/cv #  volume        pressure    internal energy      dm/dt in      density dm/dt out  total mass gas temp. surface area   reaction dm/dt outp dm/dt outv
 3.19998E+01       1     2.0808E+04     5.9534E-04     3.1002E+01     0.0000E+00     7.3692E-09  0.000E+00  1.533E-04  1.030E+03  5.778E+03  0.000E+00  0.000E+00  0.000E+00
    Material I.D.=           1  Unblocked  Area=  0.0000E+00    Blocked  Area=  0.0000E+00    Leakage      =  0.0000E+00
    Material I.D.=           1  Unblocked  Area=  0.0000E+00    Blocked  Area=  0.0000E+00    Leakage      =  0.0000E+00


      time   airbag/cv #  volume        pressure    internal energy      dm/dt in      density dm/dt out  total mass gas temp. surface area   reaction dm/dt outp dm/dt outv
 3.24999E+01       1     2.0836E+04     5.9424E-04     3.0986E+01     0.0000E+00     7.3594E-09  0.000E+00  1.533E-04  1.030E+03  5.785E+03  0.000E+00  0.000E+00  0.000E+00
    Material I.D.=           1  Unblocked  Area=  0.0000E+00    Blocked  Area=  0.0000E+00    Leakage      =  0.0000E+00
    Material I.D.=           1  Unblocked  Area=  0.0000E+00    Blocked  Area=  0.0000E+00    Leakage      =  0.0000E+00


      time   airbag/cv #  volume        pressure    internal energy      dm/dt in      density dm/dt out  total mass gas temp. surface area   reaction dm/dt outp dm/dt outv
 3.29999E+01       1     2.0817E+04     5.9500E-04     3.0997E+01     0.0000E+00     7.3661E-09  0.000E+00  1.533E-04  1.030E+03  5.783E+03  0.000E+00  0.000E+00  0.000E+00
    Material I.D.=           1  Unblocked  Area=  0.0000E+00    Blocked  Area=  0.0000E+00    Leakage      =  0.0000E+00
    Material I.D.=           1  Unblocked  Area=  0.0000E+00    Blocked  Area=  0.0000E+00    Leakage      =  0.0000E+00


      time   airbag/cv #  volume        pressure    internal energy      dm/dt in      density dm/dt out  total mass gas temp. surface area   reaction dm/dt outp dm/dt outv
 3.34998E+01       1     2.0835E+04     5.9429E-04     3.0986E+01     0.0000E+00     7.3599E-09  0.000E+00  1.533E-04  1.030E+03  5.785E+03  0.000E+00  0.000E+00  0.000E+00
    Material I.D.=           1  Unblocked  Area=  0.0000E+00    Blocked  Area=  0.0000E+00    Leakage      =  0.0000E+00
    Material I.D.=           1  Unblocked  Area=  0.0000E+00    Blocked  Area=  0.0000E+00    Leakage      =  0.0000E+00


      time   airbag/cv #  volume        pressure    internal energy      dm/dt in      density dm/dt out  total mass gas temp. surface area   reaction dm/dt outp dm/dt outv
 3.39999E+01       1     2.0845E+04     5.9388E-04     3.0980E+01     0.0000E+00     7.3562E-09  0.000E+00  1.533E-04  1.030E+03  5.785E+03  0.000E+00  0.000E+00  0.000E+00
    Material I.D.=           1  Unblocked  Area=  0.0000E+00    Blocked  Area=  0.0000E+00    Leakage      =  0.0000E+00
    Material I.D.=           1  Unblocked  Area=  0.0000E+00    Blocked  Area=  0.0000E+00    Leakage      =  0.0000E+00


      time   airbag/cv #  volume        pressure    internal energy      dm/dt in      density dm/dt out  total mass gas temp. surface area   reaction dm/dt outp dm/dt outv
 3.45000E+01       1     2.0852E+04     5.9361E-04     3.0976E+01     0.0000E+00     7.3539E-09  0.000E+00  1.533E-04  1.030E+03  5.788E+03  0.000E+00  0.000E+00  0.000E+00
    Material I.D.=           1  Unblocked  Area=  0.0000E+00    Blocked  Area=  0.0000E+00    Leakage      =  0.0000E+00
    Material I.D.=           1  Unblocked  Area=  0.0000E+00    Blocked  Area=  0.0000E+00    Leakage      =  0.0000E+00


      time   airbag/cv #  volume        pressure    internal energy      dm/dt in      density dm/dt out  total mass gas temp. surface area   reaction dm/dt outp dm/dt outv
 3.49999E+01       1     2.0843E+04     5.9395E-04     3.0981E+01     0.0000E+00     7.3568E-09  0.000E+00  1.533E-04  1.030E+03  5.781E+03  0.000E+00  0.000E+00  0.000E+00
    Material I.D.=           1  Unblocked  Area=  0.0000E+00    Blocked  Area=  0.0000E+00    Leakage      =  0.0000E+00
    Material I.D.=           1  Unblocked  Area=  0.0000E+00    Blocked  Area=  0.0000E+00    Leakage      =  0.0000E+00


      time   airbag/cv #  volume        pressure    internal energy      dm/dt in      density dm/dt out  total mass gas temp. surface area   reaction dm/dt outp dm/dt outv
 3.54999E+01       1     2.0849E+04     5.9373E-04     3.0978E+01     0.0000E+00     7.3549E-09  0.000E+00  1.533E-04  1.030E+03  5.784E+03  0.000E+00  0.000E+00  0.000E+00
    Material I.D.=           1  Unblocked  Area=  0.0000E+00    Blocked  Area=  0.0000E+00    Leakage      =  0.0000E+00
    Material I.D.=           1  Unblocked  Area=  0.0000E+00    Blocked  Area=  0.0000E+00    Leakage      =  0.0000E+00


      time   airbag/cv #  volume        pressure    internal energy      dm/dt in      density dm/dt out  total mass gas temp. surface area   reaction dm/dt outp dm/dt outv
 3.59999E+01       1     2.0811E+04     5.9525E-04     3.1000E+01     0.0000E+00     7.3683E-09  0.000E+00  1.533E-04  1.030E+03  5.784E+03  0.000E+00  0.000E+00  0.000E+00
    Material I.D.=           1  Unblocked  Area=  0.0000E+00    Blocked  Area=  0.0000E+00    Leakage      =  0.0000E+00
    Material I.D.=           1  Unblocked  Area=  0.0000E+00    Blocked  Area=  0.0000E+00    Leakage      =  0.0000E+00


      time   airbag/cv #  volume        pressure    internal energy      dm/dt in      density dm/dt out  total mass gas temp. surface area   reaction dm/dt outp dm/dt outv
 3.64999E+01       1     2.0855E+04     5.9347E-04     3.0974E+01     0.0000E+00     7.3526E-09  0.000E+00  1.533E-04  1.030E+03  5.781E+03  0.000E+00  0.000E+00  0.000E+00
    Material I.D.=           1  Unblocked  Area=  0.0000E+00    Blocked  Area=  0.0000E+00    Leakage      =  0.0000E+00
    Material I.D.=           1  Unblocked  Area=  0.0000E+00    Blocked  Area=  0.0000E+00    Leakage      =  0.0000E+00


      time   airbag/cv #  volume        pressure    internal energy      dm/dt in      density dm/dt out  total mass gas temp. surface area   reaction dm/dt outp dm/dt outv
 3.70000E+01       1     2.0856E+04     5.9345E-04     3.0974E+01     0.0000E+00     7.3524E-09  0.000E+00  1.533E-04  1.030E+03  5.784E+03  0.000E+00  0.000E+00  0.000E+00
    Material I.D.=           1  Unblocked  Area=  0.0000E+00    Blocked  Area=  0.0000E+00    Leakage      =  0.0000E+00
    Material I.D.=           1  Unblocked  Area=  0.0000E+00    Blocked  Area=  0.0000E+00    Leakage      =  0.0000E+00


      time   airbag/cv #  volume        pressure    internal energy      dm/dt in      density dm/dt out  total mass gas temp. surface area   reaction dm/dt outp dm/dt outv
 3.74998E+01       1     2.0861E+04     5.9324E-04     3.0971E+01     0.0000E+00     7.3506E-09  0.000E+00  1.533E-04  1.029E+03  5.781E+03  0.000E+00  0.000E+00  0.000E+00
    Material I.D.=           1  Unblocked  Area=  0.0000E+00    Blocked  Area=  0.0000E+00    Leakage      =  0.0000E+00
    Material I.D.=           1  Unblocked  Area=  0.0000E+00    Blocked  Area=  0.0000E+00    Leakage      =  0.0000E+00


      time   airbag/cv #  volume        pressure    internal energy      dm/dt in      density dm/dt out  total mass gas temp. surface area   reaction dm/dt outp dm/dt outv
 3.79999E+01       1     2.0819E+04     5.9491E-04     3.0996E+01     0.0000E+00     7.3654E-09  0.000E+00  1.533E-04  1.030E+03  5.781E+03  0.000E+00  0.000E+00  0.000E+00
    Material I.D.=           1  Unblocked  Area=  0.0000E+00    Blocked  Area=  0.0000E+00    Leakage      =  0.0000E+00
    Material I.D.=           1  Unblocked  Area=  0.0000E+00    Blocked  Area=  0.0000E+00    Leakage      =  0.0000E+00


      time   airbag/cv #  volume        pressure    internal energy      dm/dt in      density dm/dt out  total mass gas temp. surface area   reaction dm/dt outp dm/dt outv
 3.84998E+01       1     2.0814E+04     5.9513E-04     3.0999E+01     0.0000E+00     7.3673E-09  0.000E+00  1.533E-04  1.030E+03  5.781E+03  0.000E+00  0.000E+00  0.000E+00
    Material I.D.=           1  Unblocked  Area=  0.0000E+00    Blocked  Area=  0.0000E+00    Leakage      =  0.0000E+00
    Material I.D.=           1  Unblocked  Area=  0.0000E+00    Blocked  Area=  0.0000E+00    Leakage      =  0.0000E+00


      time   airbag/cv #  volume        pressure    internal energy      dm/dt in      density dm/dt out  total mass gas temp. surface area   reaction dm/dt outp dm/dt outv
 3.89999E+01       1     2.0887E+04     5.9222E-04     3.0955E+01     0.0000E+00     7.3415E-09  0.000E+00  1.533E-04  1.029E+03  5.786E+03  0.000E+00  0.000E+00  0.000E+00
    Material I.D.=           1  Unblocked  Area=  0.0000E+00    Blocked  Area=  0.0000E+00    Leakage      =  0.0000E+00
    Material I.D.=           1  Unblocked  Area=  0.0000E+00    Blocked  Area=  0.0000E+00    Leakage      =  0.0000E+00


      time   airbag/cv #  volume        pressure    internal energy      dm/dt in      density dm/dt out  total mass gas temp. surface area   reaction dm/dt outp dm/dt outv
 3.94999E+01       1     2.0810E+04     5.9527E-04     3.1001E+01     0.0000E+00     7.3686E-09  0.000E+00  1.533E-04  1.030E+03  5.781E+03  0.000E+00  0.000E+00  0.000E+00
    Material I.D.=           1  Unblocked  Area=  0.0000E+00    Blocked  Area=  0.0000E+00    Leakage      =  0.0000E+00
    Material I.D.=           1  Unblocked  Area=  0.0000E+00    Blocked  Area=  0.0000E+00    Leakage      =  0.0000E+00


      time   airbag/cv #  volume        pressure    internal energy      dm/dt in      density dm/dt out  total mass gas temp. surface area   reaction dm/dt outp dm/dt outv
 3.99998E+01       1     2.0847E+04     5.9379E-04     3.0979E+01     0.0000E+00     7.3554E-09  0.000E+00  1.533E-04  1.030E+03  5.780E+03  0.000E+00  0.000E+00  0.000E+00
    Material I.D.=           1  Unblocked  Area=  0.0000E+00    Blocked  Area=  0.0000E+00    Leakage      =  0.0000E+00
    Material I.D.=           1  Unblocked  Area=  0.0000E+00    Blocked  Area=  0.0000E+00    Leakage      =  0.0000E+00
