 LS-DYNA keyword deck by LS-PrePost                                      
                    ls-dyna smp d R13 R13.1.1_27_8731a0 date 07/28/2023


      time   airbag/cv #  volume        pressure    internal energy      dm/dt in      density dm/dt out  total mass gas temp. surface area   reaction dm/dt outp dm/dt outv
 1.10000E-07       1     2.7269E+03     1.0130E-04     6.9130E-01     5.5000E-14     1.2250E-09  0.000E+00  3.341E-06  1.055E+03  5.614E+03  0.000E+00  0.000E+00  0.000E+00
    Material I.D.=           1  Unblocked  Area=  0.0000E+00    Blocked  Area=  0.0000E+00    Leakage      =  0.0000E+00
    Material I.D.=           1  Unblocked  Area=  0.0000E+00    Blocked  Area=  0.0000E+00    Leakage      =  0.0000E+00


      time   airbag/cv #  volume        pressure    internal energy      dm/dt in      density dm/dt out  total mass gas temp. surface area   reaction dm/dt outp dm/dt outv
 4.99982E-01       1     2.7651E+03     1.0133E-04     7.0117E-01     2.4999E-07     1.2307E-09  0.000E+00  3.403E-06  1.050E+03  5.614E+03  0.000E+00  0.000E+00  0.000E+00
    Material I.D.=           1  Unblocked  Area=  0.0000E+00    Blocked  Area=  0.0000E+00    Leakage      =  0.0000E+00
    Material I.D.=           1  Unblocked  Area=  0.0000E+00    Blocked  Area=  0.0000E+00    Leakage      =  0.0000E+00


      time   airbag/cv #  volume        pressure    internal energy      dm/dt in      density dm/dt out  total mass gas temp. surface area   reaction dm/dt outp dm/dt outv
 9.99857E-01       1     2.8811E+03     1.0133E-04     7.3060E-01     4.9993E-07     1.2462E-09  0.000E+00  3.590E-06  1.037E+03  5.614E+03  0.000E+00  0.000E+00  0.000E+00
    Material I.D.=           1  Unblocked  Area=  0.0000E+00    Blocked  Area=  0.0000E+00    Leakage      =  0.0000E+00
    Material I.D.=           1  Unblocked  Area=  0.0000E+00    Blocked  Area=  0.0000E+00    Leakage      =  0.0000E+00


      time   airbag/cv #  volume        pressure    internal energy      dm/dt in      density dm/dt out  total mass gas temp. surface area   reaction dm/dt outp dm/dt outv
 1.49993E+00       1     3.0750E+03     1.0131E-04     7.7961E-01     7.4996E-07     1.2693E-09  0.000E+00  3.903E-06  1.018E+03  5.614E+03  0.000E+00  0.000E+00  0.000E+00
    Material I.D.=           1  Unblocked  Area=  0.0000E+00    Blocked  Area=  0.0000E+00    Leakage      =  0.0000E+00
    Material I.D.=           1  Unblocked  Area=  0.0000E+00    Blocked  Area=  0.0000E+00    Leakage      =  0.0000E+00


      time   airbag/cv #  volume        pressure    internal energy      dm/dt in      density dm/dt out  total mass gas temp. surface area   reaction dm/dt outp dm/dt outv
 2.00000E+00       1     3.3459E+03     1.0131E-04     8.4829E-01     1.0000E-06     1.2973E-09  0.000E+00  4.341E-06  9.961E+02  5.613E+03  0.000E+00  0.000E+00  0.000E+00
    Material I.D.=           1  Unblocked  Area=  0.0000E+00    Blocked  Area=  0.0000E+00    Leakage      =  0.0000E+00
    Material I.D.=           1  Unblocked  Area=  0.0000E+00    Blocked  Area=  0.0000E+00    Leakage      =  0.0000E+00


      time   airbag/cv #  volume        pressure    internal energy      dm/dt in      density dm/dt out  total mass gas temp. surface area   reaction dm/dt outp dm/dt outv
 2.49987E+00       1     3.6938E+03     1.0132E-04     9.3658E-01     1.2499E-06     1.3273E-09  0.000E+00  4.903E-06  9.736E+02  5.613E+03  0.000E+00  0.000E+00  0.000E+00
    Material I.D.=           1  Unblocked  Area=  0.0000E+00    Blocked  Area=  0.0000E+00    Leakage      =  0.0000E+00
    Material I.D.=           1  Unblocked  Area=  0.0000E+00    Blocked  Area=  0.0000E+00    Leakage      =  0.0000E+00


      time   airbag/cv #  volume        pressure    internal energy      dm/dt in      density dm/dt out  total mass gas temp. surface area   reaction dm/dt outp dm/dt outv
 2.99994E+00       1     4.1194E+03     1.0132E-04     1.0445E+00     1.5000E-06     1.3571E-09  0.000E+00  5.591E-06  9.523E+02  5.613E+03  0.000E+00  0.000E+00  0.000E+00
    Material I.D.=           1  Unblocked  Area=  0.0000E+00    Blocked  Area=  0.0000E+00    Leakage      =  0.0000E+00
    Material I.D.=           1  Unblocked  Area=  0.0000E+00    Blocked  Area=  0.0000E+00    Leakage      =  0.0000E+00


      time   airbag/cv #  volume        pressure    internal energy      dm/dt in      density dm/dt out  total mass gas temp. surface area   reaction dm/dt outp dm/dt outv
 3.49982E+00       1     4.6219E+03     1.0133E-04     1.1720E+00     1.7499E-06     1.3853E-09  0.000E+00  6.403E-06  9.330E+02  5.613E+03  0.000E+00  0.000E+00  0.000E+00
    Material I.D.=           1  Unblocked  Area=  0.0000E+00    Blocked  Area=  0.0000E+00    Leakage      =  0.0000E+00
    Material I.D.=           1  Unblocked  Area=  0.0000E+00    Blocked  Area=  0.0000E+00    Leakage      =  0.0000E+00


      time   airbag/cv #  volume        pressure    internal energy      dm/dt in      density dm/dt out  total mass gas temp. surface area   reaction dm/dt outp dm/dt outv
 3.99989E+00       1     5.2015E+03     1.0135E-04     1.3193E+00     1.9999E-06     1.4112E-09  0.000E+00  7.340E-06  9.160E+02  5.611E+03  0.000E+00  0.000E+00  0.000E+00
    Material I.D.=           1  Unblocked  Area=  0.0000E+00    Blocked  Area=  0.0000E+00    Leakage      =  0.0000E+00
    Material I.D.=           1  Unblocked  Area=  0.0000E+00    Blocked  Area=  0.0000E+00    Leakage      =  0.0000E+00


      time   airbag/cv #  volume        pressure    internal energy      dm/dt in      density dm/dt out  total mass gas temp. surface area   reaction dm/dt outp dm/dt outv
 4.49996E+00       1     5.8521E+03     1.0152E-04     1.4867E+00     2.2500E-06     1.4359E-09  0.000E+00  8.403E-06  9.018E+02  5.607E+03  0.000E+00  0.000E+00  0.000E+00
    Material I.D.=           1  Unblocked  Area=  0.0000E+00    Blocked  Area=  0.0000E+00    Leakage      =  0.0000E+00
    Material I.D.=           1  Unblocked  Area=  0.0000E+00    Blocked  Area=  0.0000E+00    Leakage      =  0.0000E+00


      time   airbag/cv #  volume        pressure    internal energy      dm/dt in      density dm/dt out  total mass gas temp. surface area   reaction dm/dt outp dm/dt outv
 4.99983E+00       1     6.5771E+03     1.0170E-04     1.6739E+00     2.4999E-06     1.4581E-09  0.000E+00  9.590E-06  8.896E+02  5.601E+03  0.000E+00  0.000E+00  0.000E+00
    Material I.D.=           1  Unblocked  Area=  0.0000E+00    Blocked  Area=  0.0000E+00    Leakage      =  0.0000E+00
    Material I.D.=           1  Unblocked  Area=  0.0000E+00    Blocked  Area=  0.0000E+00    Leakage      =  0.0000E+00


      time   airbag/cv #  volume        pressure    internal energy      dm/dt in      density dm/dt out  total mass gas temp. surface area   reaction dm/dt outp dm/dt outv
 5.49991E+00       1     7.4138E+03     1.0119E-04     1.8774E+00     2.7500E-06     1.4706E-09  0.000E+00  1.090E-05  8.776E+02  5.595E+03  0.000E+00  0.000E+00  0.000E+00
    Material I.D.=           1  Unblocked  Area=  0.0000E+00    Blocked  Area=  0.0000E+00    Leakage      =  0.0000E+00
    Material I.D.=           1  Unblocked  Area=  0.0000E+00    Blocked  Area=  0.0000E+00    Leakage      =  0.0000E+00


      time   airbag/cv #  volume        pressure    internal energy      dm/dt in      density dm/dt out  total mass gas temp. surface area   reaction dm/dt outp dm/dt outv
 5.99998E+00       1     8.2781E+03     1.0164E-04     2.1055E+00     3.0000E-06     1.4908E-09  0.000E+00  1.234E-05  8.696E+02  5.590E+03  0.000E+00  0.000E+00  0.000E+00
    Material I.D.=           1  Unblocked  Area=  0.0000E+00    Blocked  Area=  0.0000E+00    Leakage      =  0.0000E+00
    Material I.D.=           1  Unblocked  Area=  0.0000E+00    Blocked  Area=  0.0000E+00    Leakage      =  0.0000E+00


      time   airbag/cv #  volume        pressure    internal energy      dm/dt in      density dm/dt out  total mass gas temp. surface area   reaction dm/dt outp dm/dt outv
 6.49985E+00       1     9.2405E+03     1.0166E-04     2.3509E+00     3.2499E-06     1.5046E-09  0.000E+00  1.390E-05  8.618E+02  5.583E+03  0.000E+00  0.000E+00  0.000E+00
    Material I.D.=           1  Unblocked  Area=  0.0000E+00    Blocked  Area=  0.0000E+00    Leakage      =  0.0000E+00
    Material I.D.=           1  Unblocked  Area=  0.0000E+00    Blocked  Area=  0.0000E+00    Leakage      =  0.0000E+00


      time   airbag/cv #  volume        pressure    internal energy      dm/dt in      density dm/dt out  total mass gas temp. surface area   reaction dm/dt outp dm/dt outv
 6.99992E+00       1     1.0278E+04     1.0171E-04     2.6162E+00     3.5000E-06     1.5168E-09  0.000E+00  1.559E-05  8.553E+02  5.577E+03  0.000E+00  0.000E+00  0.000E+00
    Material I.D.=           1  Unblocked  Area=  0.0000E+00    Blocked  Area=  0.0000E+00    Leakage      =  0.0000E+00
    Material I.D.=           1  Unblocked  Area=  0.0000E+00    Blocked  Area=  0.0000E+00    Leakage      =  0.0000E+00


      time   airbag/cv #  volume        pressure    internal energy      dm/dt in      density dm/dt out  total mass gas temp. surface area   reaction dm/dt outp dm/dt outv
 7.50000E+00       1     1.1367E+04     1.0206E-04     2.9034E+00     3.7500E-06     1.5310E-09  0.000E+00  1.740E-05  8.503E+02  5.565E+03  0.000E+00  0.000E+00  0.000E+00
    Material I.D.=           1  Unblocked  Area=  0.0000E+00    Blocked  Area=  0.0000E+00    Leakage      =  0.0000E+00
    Material I.D.=           1  Unblocked  Area=  0.0000E+00    Blocked  Area=  0.0000E+00    Leakage      =  0.0000E+00


      time   airbag/cv #  volume        pressure    internal energy      dm/dt in      density dm/dt out  total mass gas temp. surface area   reaction dm/dt outp dm/dt outv
 7.99987E+00       1     1.2531E+04     1.0236E-04     3.2100E+00     3.9999E-06     1.5434E-09  0.000E+00  1.934E-05  8.460E+02  5.545E+03  0.000E+00  0.000E+00  0.000E+00
    Material I.D.=           1  Unblocked  Area=  0.0000E+00    Blocked  Area=  0.0000E+00    Leakage      =  0.0000E+00
    Material I.D.=           1  Unblocked  Area=  0.0000E+00    Blocked  Area=  0.0000E+00    Leakage      =  0.0000E+00


      time   airbag/cv #  volume        pressure    internal energy      dm/dt in      density dm/dt out  total mass gas temp. surface area   reaction dm/dt outp dm/dt outv
 8.49994E+00       1     1.3713E+04     1.0321E-04     3.5417E+00     4.2500E-06     1.5608E-09  0.000E+00  2.140E-05  8.434E+02  5.522E+03  0.000E+00  0.000E+00  0.000E+00
    Material I.D.=           1  Unblocked  Area=  0.0000E+00    Blocked  Area=  0.0000E+00    Leakage      =  0.0000E+00
    Material I.D.=           1  Unblocked  Area=  0.0000E+00    Blocked  Area=  0.0000E+00    Leakage      =  0.0000E+00


      time   airbag/cv #  volume        pressure    internal energy      dm/dt in      density dm/dt out  total mass gas temp. surface area   reaction dm/dt outp dm/dt outv
 8.99982E+00       1     1.4885E+04     1.0470E-04     3.9004E+00     4.4999E-06     1.5848E-09  0.000E+00  2.359E-05  8.427E+02  5.488E+03  0.000E+00  0.000E+00  0.000E+00
    Material I.D.=           1  Unblocked  Area=  0.0000E+00    Blocked  Area=  0.0000E+00    Leakage      =  0.0000E+00
    Material I.D.=           1  Unblocked  Area=  0.0000E+00    Blocked  Area=  0.0000E+00    Leakage      =  0.0000E+00


      time   airbag/cv #  volume        pressure    internal energy      dm/dt in      density dm/dt out  total mass gas temp. surface area   reaction dm/dt outp dm/dt outv
 9.49989E+00       1     1.5891E+04     1.0817E-04     4.3016E+00     4.7499E-06     1.6301E-09  0.000E+00  2.590E-05  8.464E+02  5.450E+03  0.000E+00  0.000E+00  0.000E+00
    Material I.D.=           1  Unblocked  Area=  0.0000E+00    Blocked  Area=  0.0000E+00    Leakage      =  0.0000E+00
    Material I.D.=           1  Unblocked  Area=  0.0000E+00    Blocked  Area=  0.0000E+00    Leakage      =  0.0000E+00


      time   airbag/cv #  volume        pressure    internal energy      dm/dt in      density dm/dt out  total mass gas temp. surface area   reaction dm/dt outp dm/dt outv
 9.99996E+00       1     1.6647E+04     1.1410E-04     4.7533E+00     5.0000E-06     1.7024E-09  0.000E+00  2.834E-05  8.548E+02  5.420E+03  0.000E+00  0.000E+00  0.000E+00
    Material I.D.=           1  Unblocked  Area=  0.0000E+00    Blocked  Area=  0.0000E+00    Leakage      =  0.0000E+00
    Material I.D.=           1  Unblocked  Area=  0.0000E+00    Blocked  Area=  0.0000E+00    Leakage      =  0.0000E+00


      time   airbag/cv #  volume        pressure    internal energy      dm/dt in      density dm/dt out  total mass gas temp. surface area   reaction dm/dt outp dm/dt outv
 1.04998E+01       1     1.7117E+04     1.2281E-04     5.2609E+00     5.2499E-06     1.8054E-09  0.000E+00  3.090E-05  8.677E+02  5.418E+03  0.000E+00  0.000E+00  0.000E+00
    Material I.D.=           1  Unblocked  Area=  0.0000E+00    Blocked  Area=  0.0000E+00    Leakage      =  0.0000E+00
    Material I.D.=           1  Unblocked  Area=  0.0000E+00    Blocked  Area=  0.0000E+00    Leakage      =  0.0000E+00


      time   airbag/cv #  volume        pressure    internal energy      dm/dt in      density dm/dt out  total mass gas temp. surface area   reaction dm/dt outp dm/dt outv
 1.09999E+01       1     1.7287E+04     1.3476E-04     5.8300E+00     5.4999E-06     1.9431E-09  0.000E+00  3.359E-05  8.846E+02  5.413E+03  0.000E+00  0.000E+00  0.000E+00
    Material I.D.=           1  Unblocked  Area=  0.0000E+00    Blocked  Area=  0.0000E+00    Leakage      =  0.0000E+00
    Material I.D.=           1  Unblocked  Area=  0.0000E+00    Blocked  Area=  0.0000E+00    Leakage      =  0.0000E+00


      time   airbag/cv #  volume        pressure    internal energy      dm/dt in      density dm/dt out  total mass gas temp. surface area   reaction dm/dt outp dm/dt outv
 1.15000E+01       1     1.7446E+04     1.4717E-04     6.4255E+00     5.7500E-06     2.0867E-09  0.000E+00  3.640E-05  8.996E+02  5.426E+03  0.000E+00  0.000E+00  0.000E+00
    Material I.D.=           1  Unblocked  Area=  0.0000E+00    Blocked  Area=  0.0000E+00    Leakage      =  0.0000E+00
    Material I.D.=           1  Unblocked  Area=  0.0000E+00    Blocked  Area=  0.0000E+00    Leakage      =  0.0000E+00


      time   airbag/cv #  volume        pressure    internal energy      dm/dt in      density dm/dt out  total mass gas temp. surface area   reaction dm/dt outp dm/dt outv
 1.19998E+01       1     1.7841E+04     1.5701E-04     7.0104E+00     5.9999E-06     2.2050E-09  0.000E+00  3.934E-05  9.083E+02  5.453E+03  0.000E+00  0.000E+00  0.000E+00
    Material I.D.=           1  Unblocked  Area=  0.0000E+00    Blocked  Area=  0.0000E+00    Leakage      =  0.0000E+00
    Material I.D.=           1  Unblocked  Area=  0.0000E+00    Blocked  Area=  0.0000E+00    Leakage      =  0.0000E+00


      time   airbag/cv #  volume        pressure    internal energy      dm/dt in      density dm/dt out  total mass gas temp. surface area   reaction dm/dt outp dm/dt outv
 1.24999E+01       1     1.8013E+04     1.6981E-04     7.6548E+00     6.2499E-06     2.3541E-09  0.000E+00  4.240E-05  9.201E+02  5.510E+03  0.000E+00  0.000E+00  0.000E+00
    Material I.D.=           1  Unblocked  Area=  0.0000E+00    Blocked  Area=  0.0000E+00    Leakage      =  0.0000E+00
    Material I.D.=           1  Unblocked  Area=  0.0000E+00    Blocked  Area=  0.0000E+00    Leakage      =  0.0000E+00


      time   airbag/cv #  volume        pressure    internal energy      dm/dt in      density dm/dt out  total mass gas temp. surface area   reaction dm/dt outp dm/dt outv
 1.29999E+01       1     1.8204E+04     1.8264E-04     8.3207E+00     6.5000E-06     2.5044E-09  0.000E+00  4.559E-05  9.302E+02  5.531E+03  0.000E+00  0.000E+00  0.000E+00
    Material I.D.=           1  Unblocked  Area=  0.0000E+00    Blocked  Area=  0.0000E+00    Leakage      =  0.0000E+00
    Material I.D.=           1  Unblocked  Area=  0.0000E+00    Blocked  Area=  0.0000E+00    Leakage      =  0.0000E+00


      time   airbag/cv #  volume        pressure    internal energy      dm/dt in      density dm/dt out  total mass gas temp. surface area   reaction dm/dt outp dm/dt outv
 1.34999E+01       1     1.8393E+04     1.9580E-04     9.0127E+00     6.7500E-06     2.6587E-09  0.000E+00  4.890E-05  9.393E+02  5.528E+03  0.000E+00  0.000E+00  0.000E+00
    Material I.D.=           1  Unblocked  Area=  0.0000E+00    Blocked  Area=  0.0000E+00    Leakage      =  0.0000E+00
    Material I.D.=           1  Unblocked  Area=  0.0000E+00    Blocked  Area=  0.0000E+00    Leakage      =  0.0000E+00


      time   airbag/cv #  volume        pressure    internal energy      dm/dt in      density dm/dt out  total mass gas temp. surface area   reaction dm/dt outp dm/dt outv
 1.39999E+01       1     1.8452E+04     2.1126E-04     9.7553E+00     7.0000E-06     2.8366E-09  0.000E+00  5.234E-05  9.500E+02  5.538E+03  0.000E+00  0.000E+00  0.000E+00
    Material I.D.=           1  Unblocked  Area=  0.0000E+00    Blocked  Area=  0.0000E+00    Leakage      =  0.0000E+00
    Material I.D.=           1  Unblocked  Area=  0.0000E+00    Blocked  Area=  0.0000E+00    Leakage      =  0.0000E+00


      time   airbag/cv #  volume        pressure    internal energy      dm/dt in      density dm/dt out  total mass gas temp. surface area   reaction dm/dt outp dm/dt outv
 1.44999E+01       1     1.8568E+04     2.2624E-04     1.0513E+01     7.2500E-06     3.0108E-09  0.000E+00  5.590E-05  9.585E+02  5.558E+03  0.000E+00  0.000E+00  0.000E+00
    Material I.D.=           1  Unblocked  Area=  0.0000E+00    Blocked  Area=  0.0000E+00    Leakage      =  0.0000E+00
    Material I.D.=           1  Unblocked  Area=  0.0000E+00    Blocked  Area=  0.0000E+00    Leakage      =  0.0000E+00


      time   airbag/cv #  volume        pressure    internal energy      dm/dt in      density dm/dt out  total mass gas temp. surface area   reaction dm/dt outp dm/dt outv
 1.49999E+01       1     1.8675E+04     2.4174E-04     1.1298E+01     7.4999E-06     3.1909E-09  0.000E+00  5.959E-05  9.663E+02  5.571E+03  0.000E+00  0.000E+00  0.000E+00
    Material I.D.=           1  Unblocked  Area=  0.0000E+00    Blocked  Area=  0.0000E+00    Leakage      =  0.0000E+00
    Material I.D.=           1  Unblocked  Area=  0.0000E+00    Blocked  Area=  0.0000E+00    Leakage      =  0.0000E+00


      time   airbag/cv #  volume        pressure    internal energy      dm/dt in      density dm/dt out  total mass gas temp. surface area   reaction dm/dt outp dm/dt outv
 1.54998E+01       1     1.8838E+04     2.5655E-04     1.2095E+01     7.7499E-06     3.3657E-09  0.000E+00  6.340E-05  9.723E+02  5.578E+03  0.000E+00  0.000E+00  0.000E+00
    Material I.D.=           1  Unblocked  Area=  0.0000E+00    Blocked  Area=  0.0000E+00    Leakage      =  0.0000E+00
    Material I.D.=           1  Unblocked  Area=  0.0000E+00    Blocked  Area=  0.0000E+00    Leakage      =  0.0000E+00


      time   airbag/cv #  volume        pressure    internal energy      dm/dt in      density dm/dt out  total mass gas temp. surface area   reaction dm/dt outp dm/dt outv
 1.59999E+01       1     1.8902E+04     2.7360E-04     1.2942E+01     8.0000E-06     3.5626E-09  0.000E+00  6.734E-05  9.796E+02  5.584E+03  0.000E+00  0.000E+00  0.000E+00
    Material I.D.=           1  Unblocked  Area=  0.0000E+00    Blocked  Area=  0.0000E+00    Leakage      =  0.0000E+00
    Material I.D.=           1  Unblocked  Area=  0.0000E+00    Blocked  Area=  0.0000E+00    Leakage      =  0.0000E+00


      time   airbag/cv #  volume        pressure    internal energy      dm/dt in      density dm/dt out  total mass gas temp. surface area   reaction dm/dt outp dm/dt outv
 1.64998E+01       1     1.8975E+04     2.9092E-04     1.3814E+01     8.2499E-06     3.7630E-09  0.000E+00  7.140E-05  9.861E+02  5.602E+03  0.000E+00  0.000E+00  0.000E+00
    Material I.D.=           1  Unblocked  Area=  0.0000E+00    Blocked  Area=  0.0000E+00    Leakage      =  0.0000E+00
    Material I.D.=           1  Unblocked  Area=  0.0000E+00    Blocked  Area=  0.0000E+00    Leakage      =  0.0000E+00


      time   airbag/cv #  volume        pressure    internal energy      dm/dt in      density dm/dt out  total mass gas temp. surface area   reaction dm/dt outp dm/dt outv
 1.69999E+01       1     1.9138E+04     3.0662E-04     1.4686E+01     8.5000E-06     3.9497E-09  0.000E+00  7.559E-05  9.902E+02  5.608E+03  0.000E+00  0.000E+00  0.000E+00
    Material I.D.=           1  Unblocked  Area=  0.0000E+00    Blocked  Area=  0.0000E+00    Leakage      =  0.0000E+00
    Material I.D.=           1  Unblocked  Area=  0.0000E+00    Blocked  Area=  0.0000E+00    Leakage      =  0.0000E+00


      time   airbag/cv #  volume        pressure    internal energy      dm/dt in      density dm/dt out  total mass gas temp. surface area   reaction dm/dt outp dm/dt outv
 1.74999E+01       1     1.9227E+04     3.2432E-04     1.5605E+01     8.7500E-06     4.1558E-09  0.000E+00  7.990E-05  9.954E+02  5.617E+03  0.000E+00  0.000E+00  0.000E+00
    Material I.D.=           1  Unblocked  Area=  0.0000E+00    Blocked  Area=  0.0000E+00    Leakage      =  0.0000E+00
    Material I.D.=           1  Unblocked  Area=  0.0000E+00    Blocked  Area=  0.0000E+00    Leakage      =  0.0000E+00


      time   airbag/cv #  volume        pressure    internal energy      dm/dt in      density dm/dt out  total mass gas temp. surface area   reaction dm/dt outp dm/dt outv
 1.80000E+01       1     1.9284E+04     3.4317E-04     1.6561E+01     9.0000E-06     4.3736E-09  0.000E+00  8.434E-05  1.001E+03  5.625E+03  0.000E+00  0.000E+00  0.000E+00
    Material I.D.=           1  Unblocked  Area=  0.0000E+00    Blocked  Area=  0.0000E+00    Leakage      =  0.0000E+00
    Material I.D.=           1  Unblocked  Area=  0.0000E+00    Blocked  Area=  0.0000E+00    Leakage      =  0.0000E+00


      time   airbag/cv #  volume        pressure    internal energy      dm/dt in      density dm/dt out  total mass gas temp. surface area   reaction dm/dt outp dm/dt outv
 1.84999E+01       1     1.9462E+04     3.5935E-04     1.7502E+01     9.2500E-06     4.5681E-09  0.000E+00  8.890E-05  1.003E+03  5.641E+03  0.000E+00  0.000E+00  0.000E+00
    Material I.D.=           1  Unblocked  Area=  0.0000E+00    Blocked  Area=  0.0000E+00    Leakage      =  0.0000E+00
    Material I.D.=           1  Unblocked  Area=  0.0000E+00    Blocked  Area=  0.0000E+00    Leakage      =  0.0000E+00


      time   airbag/cv #  volume        pressure    internal energy      dm/dt in      density dm/dt out  total mass gas temp. surface area   reaction dm/dt outp dm/dt outv
 1.89999E+01       1     1.9583E+04     3.7720E-04     1.8486E+01     9.4999E-06     4.7791E-09  0.000E+00  9.359E-05  1.007E+03  5.656E+03  0.000E+00  0.000E+00  0.000E+00
    Material I.D.=           1  Unblocked  Area=  0.0000E+00    Blocked  Area=  0.0000E+00    Leakage      =  0.0000E+00
    Material I.D.=           1  Unblocked  Area=  0.0000E+00    Blocked  Area=  0.0000E+00    Leakage      =  0.0000E+00


      time   airbag/cv #  volume        pressure    internal energy      dm/dt in      density dm/dt out  total mass gas temp. surface area   reaction dm/dt outp dm/dt outv
 1.94998E+01       1     1.9619E+04     3.9776E-04     1.9529E+01     9.7499E-06     5.0156E-09  0.000E+00  9.840E-05  1.012E+03  5.660E+03  0.000E+00  0.000E+00  0.000E+00
    Material I.D.=           1  Unblocked  Area=  0.0000E+00    Blocked  Area=  0.0000E+00    Leakage      =  0.0000E+00
    Material I.D.=           1  Unblocked  Area=  0.0000E+00    Blocked  Area=  0.0000E+00    Leakage      =  0.0000E+00


      time   airbag/cv #  volume        pressure    internal energy      dm/dt in      density dm/dt out  total mass gas temp. surface area   reaction dm/dt outp dm/dt outv
 1.99999E+01       1     1.9773E+04     4.1532E-04     2.0552E+01     9.9999E-06     5.2262E-09  0.000E+00  1.033E-04  1.014E+03  5.668E+03  0.000E+00  0.000E+00  0.000E+00
    Material I.D.=           1  Unblocked  Area=  0.0000E+00    Blocked  Area=  0.0000E+00    Leakage      =  0.0000E+00
    Material I.D.=           1  Unblocked  Area=  0.0000E+00    Blocked  Area=  0.0000E+00    Leakage      =  0.0000E+00


      time   airbag/cv #  volume        pressure    internal energy      dm/dt in      density dm/dt out  total mass gas temp. surface area   reaction dm/dt outp dm/dt outv
 2.04999E+01       1     1.9818E+04     4.3562E-04     2.1604E+01     9.5001E-06     5.4606E-09  0.000E+00  1.082E-04  1.018E+03  5.674E+03  0.000E+00  0.000E+00  0.000E+00
    Material I.D.=           1  Unblocked  Area=  0.0000E+00    Blocked  Area=  0.0000E+00    Leakage      =  0.0000E+00
    Material I.D.=           1  Unblocked  Area=  0.0000E+00    Blocked  Area=  0.0000E+00    Leakage      =  0.0000E+00


      time   airbag/cv #  volume        pressure    internal energy      dm/dt in      density dm/dt out  total mass gas temp. surface area   reaction dm/dt outp dm/dt outv
 2.09999E+01       1     2.0049E+04     4.4878E-04     2.2517E+01     9.0001E-06     5.6281E-09  0.000E+00  1.128E-04  1.017E+03  5.706E+03  0.000E+00  0.000E+00  0.000E+00
    Material I.D.=           1  Unblocked  Area=  0.0000E+00    Blocked  Area=  0.0000E+00    Leakage      =  0.0000E+00
    Material I.D.=           1  Unblocked  Area=  0.0000E+00    Blocked  Area=  0.0000E+00    Leakage      =  0.0000E+00


      time   airbag/cv #  volume        pressure    internal energy      dm/dt in      density dm/dt out  total mass gas temp. surface area   reaction dm/dt outp dm/dt outv
 2.14998E+01       1     2.0066E+04     4.6740E-04     2.3470E+01     8.5002E-06     5.8416E-09  0.000E+00  1.172E-04  1.021E+03  5.704E+03  0.000E+00  0.000E+00  0.000E+00
    Material I.D.=           1  Unblocked  Area=  0.0000E+00    Blocked  Area=  0.0000E+00    Leakage      =  0.0000E+00
    Material I.D.=           1  Unblocked  Area=  0.0000E+00    Blocked  Area=  0.0000E+00    Leakage      =  0.0000E+00


      time   airbag/cv #  volume        pressure    internal energy      dm/dt in      density dm/dt out  total mass gas temp. surface area   reaction dm/dt outp dm/dt outv
 2.19999E+01       1     2.0134E+04     4.8315E-04     2.4344E+01     8.0001E-06     6.0266E-09  0.000E+00  1.213E-04  1.023E+03  5.709E+03  0.000E+00  0.000E+00  0.000E+00
    Material I.D.=           1  Unblocked  Area=  0.0000E+00    Blocked  Area=  0.0000E+00    Leakage      =  0.0000E+00
    Material I.D.=           1  Unblocked  Area=  0.0000E+00    Blocked  Area=  0.0000E+00    Leakage      =  0.0000E+00


      time   airbag/cv #  volume        pressure    internal energy      dm/dt in      density dm/dt out  total mass gas temp. surface area   reaction dm/dt outp dm/dt outv
 2.25000E+01       1     2.0184E+04     4.9836E-04     2.5172E+01     7.5000E-06     6.2039E-09  0.000E+00  1.252E-04  1.025E+03  5.713E+03  0.000E+00  0.000E+00  0.000E+00
    Material I.D.=           1  Unblocked  Area=  0.0000E+00    Blocked  Area=  0.0000E+00    Leakage      =  0.0000E+00
    Material I.D.=           1  Unblocked  Area=  0.0000E+00    Blocked  Area=  0.0000E+00    Leakage      =  0.0000E+00


      time   airbag/cv #  volume        pressure    internal energy      dm/dt in      density dm/dt out  total mass gas temp. surface area   reaction dm/dt outp dm/dt outv
 2.30000E+01       1     2.0346E+04     5.0840E-04     2.5887E+01     7.0000E-06     6.3324E-09  0.000E+00  1.288E-04  1.024E+03  5.728E+03  0.000E+00  0.000E+00  0.000E+00
    Material I.D.=           1  Unblocked  Area=  0.0000E+00    Blocked  Area=  0.0000E+00    Leakage      =  0.0000E+00
    Material I.D.=           1  Unblocked  Area=  0.0000E+00    Blocked  Area=  0.0000E+00    Leakage      =  0.0000E+00


      time   airbag/cv #  volume        pressure    internal energy      dm/dt in      density dm/dt out  total mass gas temp. surface area   reaction dm/dt outp dm/dt outv
 2.35000E+01       1     2.0415E+04     5.2049E-04     2.6592E+01     6.5000E-06     6.4763E-09  0.000E+00  1.322E-04  1.025E+03  5.733E+03  0.000E+00  0.000E+00  0.000E+00
    Material I.D.=           1  Unblocked  Area=  0.0000E+00    Blocked  Area=  0.0000E+00    Leakage      =  0.0000E+00
    Material I.D.=           1  Unblocked  Area=  0.0000E+00    Blocked  Area=  0.0000E+00    Leakage      =  0.0000E+00


      time   airbag/cv #  volume        pressure    internal energy      dm/dt in      density dm/dt out  total mass gas temp. surface area   reaction dm/dt outp dm/dt outv
 2.40000E+01       1     2.0461E+04     5.3226E-04     2.7255E+01     6.0000E-06     6.6145E-09  0.000E+00  1.353E-04  1.026E+03  5.739E+03  0.000E+00  0.000E+00  0.000E+00
    Material I.D.=           1  Unblocked  Area=  0.0000E+00    Blocked  Area=  0.0000E+00    Leakage      =  0.0000E+00
    Material I.D.=           1  Unblocked  Area=  0.0000E+00    Blocked  Area=  0.0000E+00    Leakage      =  0.0000E+00


      time   airbag/cv #  volume        pressure    internal energy      dm/dt in      density dm/dt out  total mass gas temp. surface area   reaction dm/dt outp dm/dt outv
 2.44999E+01       1     2.0522E+04     5.4233E-04     2.7853E+01     5.5001E-06     6.7349E-09  0.000E+00  1.382E-04  1.027E+03  5.751E+03  0.000E+00  0.000E+00  0.000E+00
    Material I.D.=           1  Unblocked  Area=  0.0000E+00    Blocked  Area=  0.0000E+00    Leakage      =  0.0000E+00
    Material I.D.=           1  Unblocked  Area=  0.0000E+00    Blocked  Area=  0.0000E+00    Leakage      =  0.0000E+00


      time   airbag/cv #  volume        pressure    internal energy      dm/dt in      density dm/dt out  total mass gas temp. surface area   reaction dm/dt outp dm/dt outv
 2.50000E+01       1     2.0594E+04     5.5087E-04     2.8391E+01     5.0000E-06     6.8388E-09  0.000E+00  1.408E-04  1.027E+03  5.753E+03  0.000E+00  0.000E+00  0.000E+00
    Material I.D.=           1  Unblocked  Area=  0.0000E+00    Blocked  Area=  0.0000E+00    Leakage      =  0.0000E+00
    Material I.D.=           1  Unblocked  Area=  0.0000E+00    Blocked  Area=  0.0000E+00    Leakage      =  0.0000E+00


      time   airbag/cv #  volume        pressure    internal energy      dm/dt in      density dm/dt out  total mass gas temp. surface area   reaction dm/dt outp dm/dt outv
 2.54998E+01       1     2.0626E+04     5.5977E-04     2.8894E+01     4.5002E-06     6.9433E-09  0.000E+00  1.432E-04  1.028E+03  5.759E+03  0.000E+00  0.000E+00  0.000E+00
    Material I.D.=           1  Unblocked  Area=  0.0000E+00    Blocked  Area=  0.0000E+00    Leakage      =  0.0000E+00
    Material I.D.=           1  Unblocked  Area=  0.0000E+00    Blocked  Area=  0.0000E+00    Leakage      =  0.0000E+00


      time   airbag/cv #  volume        pressure    internal energy      dm/dt in      density dm/dt out  total mass gas temp. surface area   reaction dm/dt outp dm/dt outv
 2.59999E+01       1     2.0653E+04     5.6781E-04     2.9347E+01     4.0001E-06     7.0374E-09  0.000E+00  1.453E-04  1.029E+03  5.756E+03  0.000E+00  0.000E+00  0.000E+00
    Material I.D.=           1  Unblocked  Area=  0.0000E+00    Blocked  Area=  0.0000E+00    Leakage      =  0.0000E+00
    Material I.D.=           1  Unblocked  Area=  0.0000E+00    Blocked  Area=  0.0000E+00    Leakage      =  0.0000E+00


      time   airbag/cv #  volume        pressure    internal energy      dm/dt in      density dm/dt out  total mass gas temp. surface area   reaction dm/dt outp dm/dt outv
 2.64999E+01       1     2.0704E+04     5.7379E-04     2.9730E+01     3.5001E-06     7.1106E-09  0.000E+00  1.472E-04  1.029E+03  5.770E+03  0.000E+00  0.000E+00  0.000E+00
    Material I.D.=           1  Unblocked  Area=  0.0000E+00    Blocked  Area=  0.0000E+00    Leakage      =  0.0000E+00
    Material I.D.=           1  Unblocked  Area=  0.0000E+00    Blocked  Area=  0.0000E+00    Leakage      =  0.0000E+00


      time   airbag/cv #  volume        pressure    internal energy      dm/dt in      density dm/dt out  total mass gas temp. surface area   reaction dm/dt outp dm/dt outv
 2.69998E+01       1     2.0773E+04     5.7797E-04     3.0046E+01     3.0002E-06     7.1650E-09  0.000E+00  1.488E-04  1.029E+03  5.774E+03  0.000E+00  0.000E+00  0.000E+00
    Material I.D.=           1  Unblocked  Area=  0.0000E+00    Blocked  Area=  0.0000E+00    Leakage      =  0.0000E+00
    Material I.D.=           1  Unblocked  Area=  0.0000E+00    Blocked  Area=  0.0000E+00    Leakage      =  0.0000E+00


      time   airbag/cv #  volume        pressure    internal energy      dm/dt in      density dm/dt out  total mass gas temp. surface area   reaction dm/dt outp dm/dt outv
 2.74999E+01       1     2.0818E+04     5.8204E-04     3.0323E+01     2.5001E-06     7.2158E-09  0.000E+00  1.502E-04  1.029E+03  5.778E+03  0.000E+00  0.000E+00  0.000E+00
    Material I.D.=           1  Unblocked  Area=  0.0000E+00    Blocked  Area=  0.0000E+00    Leakage      =  0.0000E+00
    Material I.D.=           1  Unblocked  Area=  0.0000E+00    Blocked  Area=  0.0000E+00    Leakage      =  0.0000E+00


      time   airbag/cv #  volume        pressure    internal energy      dm/dt in      density dm/dt out  total mass gas temp. surface area   reaction dm/dt outp dm/dt outv
 2.79998E+01       1     2.0795E+04     5.8769E-04     3.0583E+01     2.0002E-06     7.2779E-09  0.000E+00  1.513E-04  1.030E+03  5.774E+03  0.000E+00  0.000E+00  0.000E+00
    Material I.D.=           1  Unblocked  Area=  0.0000E+00    Blocked  Area=  0.0000E+00    Leakage      =  0.0000E+00
    Material I.D.=           1  Unblocked  Area=  0.0000E+00    Blocked  Area=  0.0000E+00    Leakage      =  0.0000E+00


      time   airbag/cv #  volume        pressure    internal energy      dm/dt in      density dm/dt out  total mass gas temp. surface area   reaction dm/dt outp dm/dt outv
 2.84998E+01       1     2.0824E+04     5.9022E-04     3.0758E+01     1.5002E-06     7.3096E-09  0.000E+00  1.522E-04  1.030E+03  5.779E+03  0.000E+00  0.000E+00  0.000E+00
    Material I.D.=           1  Unblocked  Area=  0.0000E+00    Blocked  Area=  0.0000E+00    Leakage      =  0.0000E+00
    Material I.D.=           1  Unblocked  Area=  0.0000E+00    Blocked  Area=  0.0000E+00    Leakage      =  0.0000E+00


      time   airbag/cv #  volume        pressure    internal energy      dm/dt in      density dm/dt out  total mass gas temp. surface area   reaction dm/dt outp dm/dt outv
 2.89999E+01       1     2.0832E+04     5.9255E-04     3.0891E+01     1.0001E-06     7.3369E-09  0.000E+00  1.528E-04  1.030E+03  5.780E+03  0.000E+00  0.000E+00  0.000E+00
    Material I.D.=           1  Unblocked  Area=  0.0000E+00    Blocked  Area=  0.0000E+00    Leakage      =  0.0000E+00
    Material I.D.=           1  Unblocked  Area=  0.0000E+00    Blocked  Area=  0.0000E+00    Leakage      =  0.0000E+00


      time   airbag/cv #  volume        pressure    internal energy      dm/dt in      density dm/dt out  total mass gas temp. surface area   reaction dm/dt outp dm/dt outv
 2.94999E+01       1     2.0868E+04     5.9268E-04     3.0952E+01     5.0006E-07     7.3421E-09  0.000E+00  1.532E-04  1.030E+03  5.778E+03  0.000E+00  0.000E+00  0.000E+00
    Material I.D.=           1  Unblocked  Area=  0.0000E+00    Blocked  Area=  0.0000E+00    Leakage      =  0.0000E+00
    Material I.D.=           1  Unblocked  Area=  0.0000E+00    Blocked  Area=  0.0000E+00    Leakage      =  0.0000E+00


      time   airbag/cv #  volume        pressure    internal energy      dm/dt in      density dm/dt out  total mass gas temp. surface area   reaction dm/dt outp dm/dt outv
 2.99999E+01       1     2.0896E+04     5.9210E-04     3.0963E+01     1.0618E-10     7.3383E-09  0.000E+00  1.533E-04  1.029E+03  5.788E+03  0.000E+00  0.000E+00  0.000E+00
    Material I.D.=           1  Unblocked  Area=  0.0000E+00    Blocked  Area=  0.0000E+00    Leakage      =  0.0000E+00
    Material I.D.=           1  Unblocked  Area=  0.0000E+00    Blocked  Area=  0.0000E+00    Leakage      =  0.0000E+00


      time   airbag/cv #  volume        pressure    internal energy      dm/dt in      density dm/dt out  total mass gas temp. surface area   reaction dm/dt outp dm/dt outv
 3.04999E+01       1     2.0889E+04     5.9238E-04     3.0967E+01     0.0000E+00     7.3408E-09  0.000E+00  1.533E-04  1.029E+03  5.785E+03  0.000E+00  0.000E+00  0.000E+00
    Material I.D.=           1  Unblocked  Area=  0.0000E+00    Blocked  Area=  0.0000E+00    Leakage      =  0.0000E+00
    Material I.D.=           1  Unblocked  Area=  0.0000E+00    Blocked  Area=  0.0000E+00    Leakage      =  0.0000E+00


      time   airbag/cv #  volume        pressure    internal energy      dm/dt in      density dm/dt out  total mass gas temp. surface area   reaction dm/dt outp dm/dt outv
 3.09998E+01       1     2.0856E+04     5.9370E-04     3.0987E+01     0.0000E+00     7.3525E-09  0.000E+00  1.533E-04  1.030E+03  5.782E+03  0.000E+00  0.000E+00  0.000E+00
    Material I.D.=           1  Unblocked  Area=  0.0000E+00    Blocked  Area=  0.0000E+00    Leakage      =  0.0000E+00
    Material I.D.=           1  Unblocked  Area=  0.0000E+00    Blocked  Area=  0.0000E+00    Leakage      =  0.0000E+00


      time   airbag/cv #  volume        pressure    internal energy      dm/dt in      density dm/dt out  total mass gas temp. surface area   reaction dm/dt outp dm/dt outv
 3.14998E+01       1     2.0867E+04     5.9323E-04     3.0980E+01     0.0000E+00     7.3483E-09  0.000E+00  1.533E-04  1.030E+03  5.783E+03  0.000E+00  0.000E+00  0.000E+00
    Material I.D.=           1  Unblocked  Area=  0.0000E+00    Blocked  Area=  0.0000E+00    Leakage      =  0.0000E+00
    Material I.D.=           1  Unblocked  Area=  0.0000E+00    Blocked  Area=  0.0000E+00    Leakage      =  0.0000E+00


      time   airbag/cv #  volume        pressure    internal energy      dm/dt in      density dm/dt out  total mass gas temp. surface area   reaction dm/dt outp dm/dt outv
 3.19999E+01       1     2.0876E+04     5.9288E-04     3.0974E+01     0.0000E+00     7.3453E-09  0.000E+00  1.533E-04  1.030E+03  5.784E+03  0.000E+00  0.000E+00  0.000E+00
    Material I.D.=           1  Unblocked  Area=  0.0000E+00    Blocked  Area=  0.0000E+00    Leakage      =  0.0000E+00
    Material I.D.=           1  Unblocked  Area=  0.0000E+00    Blocked  Area=  0.0000E+00    Leakage      =  0.0000E+00


      time   airbag/cv #  volume        pressure    internal energy      dm/dt in      density dm/dt out  total mass gas temp. surface area   reaction dm/dt outp dm/dt outv
 3.24999E+01       1     2.0876E+04     5.9288E-04     3.0974E+01     0.0000E+00     7.3452E-09  0.000E+00  1.533E-04  1.030E+03  5.786E+03  0.000E+00  0.000E+00  0.000E+00
    Material I.D.=           1  Unblocked  Area=  0.0000E+00    Blocked  Area=  0.0000E+00    Leakage      =  0.0000E+00
    Material I.D.=           1  Unblocked  Area=  0.0000E+00    Blocked  Area=  0.0000E+00    Leakage      =  0.0000E+00


      time   airbag/cv #  volume        pressure    internal energy      dm/dt in      density dm/dt out  total mass gas temp. surface area   reaction dm/dt outp dm/dt outv
 3.29999E+01       1     2.0874E+04     5.9296E-04     3.0976E+01     0.0000E+00     7.3459E-09  0.000E+00  1.533E-04  1.030E+03  5.785E+03  0.000E+00  0.000E+00  0.000E+00
    Material I.D.=           1  Unblocked  Area=  0.0000E+00    Blocked  Area=  0.0000E+00    Leakage      =  0.0000E+00
    Material I.D.=           1  Unblocked  Area=  0.0000E+00    Blocked  Area=  0.0000E+00    Leakage      =  0.0000E+00


      time   airbag/cv #  volume        pressure    internal energy      dm/dt in      density dm/dt out  total mass gas temp. surface area   reaction dm/dt outp dm/dt outv
 3.34998E+01       1     2.0874E+04     5.9296E-04     3.0976E+01     0.0000E+00     7.3459E-09  0.000E+00  1.533E-04  1.030E+03  5.787E+03  0.000E+00  0.000E+00  0.000E+00
    Material I.D.=           1  Unblocked  Area=  0.0000E+00    Blocked  Area=  0.0000E+00    Leakage      =  0.0000E+00
    Material I.D.=           1  Unblocked  Area=  0.0000E+00    Blocked  Area=  0.0000E+00    Leakage      =  0.0000E+00


      time   airbag/cv #  volume        pressure    internal energy      dm/dt in      density dm/dt out  total mass gas temp. surface area   reaction dm/dt outp dm/dt outv
 3.40000E+01       1     2.0896E+04     5.9209E-04     3.0963E+01     0.0000E+00     7.3382E-09  0.000E+00  1.533E-04  1.029E+03  5.786E+03  0.000E+00  0.000E+00  0.000E+00
    Material I.D.=           1  Unblocked  Area=  0.0000E+00    Blocked  Area=  0.0000E+00    Leakage      =  0.0000E+00
    Material I.D.=           1  Unblocked  Area=  0.0000E+00    Blocked  Area=  0.0000E+00    Leakage      =  0.0000E+00


      time   airbag/cv #  volume        pressure    internal energy      dm/dt in      density dm/dt out  total mass gas temp. surface area   reaction dm/dt outp dm/dt outv
 3.45000E+01       1     2.0861E+04     5.9347E-04     3.0983E+01     0.0000E+00     7.3505E-09  0.000E+00  1.533E-04  1.030E+03  5.781E+03  0.000E+00  0.000E+00  0.000E+00
    Material I.D.=           1  Unblocked  Area=  0.0000E+00    Blocked  Area=  0.0000E+00    Leakage      =  0.0000E+00
    Material I.D.=           1  Unblocked  Area=  0.0000E+00    Blocked  Area=  0.0000E+00    Leakage      =  0.0000E+00


      time   airbag/cv #  volume        pressure    internal energy      dm/dt in      density dm/dt out  total mass gas temp. surface area   reaction dm/dt outp dm/dt outv
 3.50000E+01       1     2.0850E+04     5.9393E-04     3.0990E+01     0.0000E+00     7.3545E-09  0.000E+00  1.533E-04  1.030E+03  5.784E+03  0.000E+00  0.000E+00  0.000E+00
    Material I.D.=           1  Unblocked  Area=  0.0000E+00    Blocked  Area=  0.0000E+00    Leakage      =  0.0000E+00
    Material I.D.=           1  Unblocked  Area=  0.0000E+00    Blocked  Area=  0.0000E+00    Leakage      =  0.0000E+00


      time   airbag/cv #  volume        pressure    internal energy      dm/dt in      density dm/dt out  total mass gas temp. surface area   reaction dm/dt outp dm/dt outv
 3.55000E+01       1     2.0830E+04     5.9471E-04     3.1002E+01     0.0000E+00     7.3614E-09  0.000E+00  1.533E-04  1.030E+03  5.783E+03  0.000E+00  0.000E+00  0.000E+00
    Material I.D.=           1  Unblocked  Area=  0.0000E+00    Blocked  Area=  0.0000E+00    Leakage      =  0.0000E+00
    Material I.D.=           1  Unblocked  Area=  0.0000E+00    Blocked  Area=  0.0000E+00    Leakage      =  0.0000E+00


      time   airbag/cv #  volume        pressure    internal energy      dm/dt in      density dm/dt out  total mass gas temp. surface area   reaction dm/dt outp dm/dt outv
 3.59999E+01       1     2.0829E+04     5.9477E-04     3.1003E+01     0.0000E+00     7.3619E-09  0.000E+00  1.533E-04  1.030E+03  5.781E+03  0.000E+00  0.000E+00  0.000E+00
    Material I.D.=           1  Unblocked  Area=  0.0000E+00    Blocked  Area=  0.0000E+00    Leakage      =  0.0000E+00
    Material I.D.=           1  Unblocked  Area=  0.0000E+00    Blocked  Area=  0.0000E+00    Leakage      =  0.0000E+00


      time   airbag/cv #  volume        pressure    internal energy      dm/dt in      density dm/dt out  total mass gas temp. surface area   reaction dm/dt outp dm/dt outv
 3.64999E+01       1     2.0839E+04     5.9434E-04     3.0996E+01     0.0000E+00     7.3582E-09  0.000E+00  1.533E-04  1.030E+03  5.781E+03  0.000E+00  0.000E+00  0.000E+00
    Material I.D.=           1  Unblocked  Area=  0.0000E+00    Blocked  Area=  0.0000E+00    Leakage      =  0.0000E+00
    Material I.D.=           1  Unblocked  Area=  0.0000E+00    Blocked  Area=  0.0000E+00    Leakage      =  0.0000E+00


      time   airbag/cv #  volume        pressure    internal energy      dm/dt in      density dm/dt out  total mass gas temp. surface area   reaction dm/dt outp dm/dt outv
 3.69999E+01       1     2.0811E+04     5.9547E-04     3.1013E+01     0.0000E+00     7.3681E-09  0.000E+00  1.533E-04  1.031E+03  5.778E+03  0.000E+00  0.000E+00  0.000E+00
    Material I.D.=           1  Unblocked  Area=  0.0000E+00    Blocked  Area=  0.0000E+00    Leakage      =  0.0000E+00
    Material I.D.=           1  Unblocked  Area=  0.0000E+00    Blocked  Area=  0.0000E+00    Leakage      =  0.0000E+00


      time   airbag/cv #  volume        pressure    internal energy      dm/dt in      density dm/dt out  total mass gas temp. surface area   reaction dm/dt outp dm/dt outv
 3.75000E+01       1     2.0831E+04     5.9469E-04     3.1001E+01     0.0000E+00     7.3613E-09  0.000E+00  1.533E-04  1.030E+03  5.784E+03  0.000E+00  0.000E+00  0.000E+00
    Material I.D.=           1  Unblocked  Area=  0.0000E+00    Blocked  Area=  0.0000E+00    Leakage      =  0.0000E+00
    Material I.D.=           1  Unblocked  Area=  0.0000E+00    Blocked  Area=  0.0000E+00    Leakage      =  0.0000E+00


      time   airbag/cv #  volume        pressure    internal energy      dm/dt in      density dm/dt out  total mass gas temp. surface area   reaction dm/dt outp dm/dt outv
 3.79998E+01       1     2.0861E+04     5.9347E-04     3.0983E+01     0.0000E+00     7.3504E-09  0.000E+00  1.533E-04  1.030E+03  5.786E+03  0.000E+00  0.000E+00  0.000E+00
    Material I.D.=           1  Unblocked  Area=  0.0000E+00    Blocked  Area=  0.0000E+00    Leakage      =  0.0000E+00
    Material I.D.=           1  Unblocked  Area=  0.0000E+00    Blocked  Area=  0.0000E+00    Leakage      =  0.0000E+00


      time   airbag/cv #  volume        pressure    internal energy      dm/dt in      density dm/dt out  total mass gas temp. surface area   reaction dm/dt outp dm/dt outv
 3.84998E+01       1     2.0856E+04     5.9370E-04     3.0987E+01     0.0000E+00     7.3525E-09  0.000E+00  1.533E-04  1.030E+03  5.784E+03  0.000E+00  0.000E+00  0.000E+00
    Material I.D.=           1  Unblocked  Area=  0.0000E+00    Blocked  Area=  0.0000E+00    Leakage      =  0.0000E+00
    Material I.D.=           1  Unblocked  Area=  0.0000E+00    Blocked  Area=  0.0000E+00    Leakage      =  0.0000E+00


      time   airbag/cv #  volume        pressure    internal energy      dm/dt in      density dm/dt out  total mass gas temp. surface area   reaction dm/dt outp dm/dt outv
 3.90000E+01       1     2.0877E+04     5.9286E-04     3.0974E+01     0.0000E+00     7.3451E-09  0.000E+00  1.533E-04  1.030E+03  5.786E+03  0.000E+00  0.000E+00  0.000E+00
    Material I.D.=           1  Unblocked  Area=  0.0000E+00    Blocked  Area=  0.0000E+00    Leakage      =  0.0000E+00
    Material I.D.=           1  Unblocked  Area=  0.0000E+00    Blocked  Area=  0.0000E+00    Leakage      =  0.0000E+00


      time   airbag/cv #  volume        pressure    internal energy      dm/dt in      density dm/dt out  total mass gas temp. surface area   reaction dm/dt outp dm/dt outv
 3.95000E+01       1     2.0873E+04     5.9300E-04     3.0976E+01     0.0000E+00     7.3463E-09  0.000E+00  1.533E-04  1.030E+03  5.785E+03  0.000E+00  0.000E+00  0.000E+00
    Material I.D.=           1  Unblocked  Area=  0.0000E+00    Blocked  Area=  0.0000E+00    Leakage      =  0.0000E+00
    Material I.D.=           1  Unblocked  Area=  0.0000E+00    Blocked  Area=  0.0000E+00    Leakage      =  0.0000E+00


      time   airbag/cv #  volume        pressure    internal energy      dm/dt in      density dm/dt out  total mass gas temp. surface area   reaction dm/dt outp dm/dt outv
 3.99999E+01       1     2.0808E+04     5.9561E-04     3.1015E+01     0.0000E+00     7.3694E-09  0.000E+00  1.533E-04  1.031E+03  5.778E+03  0.000E+00  0.000E+00  0.000E+00
    Material I.D.=           1  Unblocked  Area=  0.0000E+00    Blocked  Area=  0.0000E+00    Leakage      =  0.0000E+00
    Material I.D.=           1  Unblocked  Area=  0.0000E+00    Blocked  Area=  0.0000E+00    Leakage      =  0.0000E+00
