$# LS-DYNA Keyword file created by LS-PrePost(R) V4.10.5-23Jun2023
$# Created on Jul-16-2024 (15:52:55)
*KEYWORD
*TITLE
$#                                                                         title
LS-DYNA keyword deck by LS-PrePost
*CONTROL_TERMINATION
$#  endtim    endcyc     dtmin    endeng    endmas     nosol
      40.0         0       0.0       0.01.000000E8         0
*DATABASE_ABSTAT
$#      dt    binary      lcur     ioopt
       0.5         0         0         1
*DATABASE_BINARY_D3PLOT
$#      dt      lcdt      beam     npltc    psetid
       0.5         0         0         0         0
*MAT_FABRIC_TITLE
Airbag
$#     mid        ro        ea        eb         -      prba      prab         -
         17.86000E-7       0.3       0.2                 0.2       0.2          
$#     gab         -         -       cse        el       prl    lratio      damp
      0.04                           1.0      0.06      0.35       0.1       0.2
$#    aopt       flc       fac       ela      lnrc      form     fvopt    tsrfac
       0.0       0.0       0.0       0.0       0.0         0         0       0.0
$#  unused    rgbrth     a0ref        a1        a2        a3        x0        x1
                 0.0         0       0.0       0.0       0.0       0.0       0.0
$#      v1        v2        v3         -         -         -      beta    isrefg
       0.0       0.0       0.0                                     0.0         0
*MAT_RIGID_TITLE
Gas Nozzle
$#     mid        ro         e        pr         n    couple         m     alias
         27.80000E-6     200.0       0.3       0.0       0.0       0.0          
$#     cmo      con1      con2
       1.0         7         7
$#lco or a1        a2        a3        v1        v2        v3
       0.0       0.0       0.0       0.0       0.0       0.0
*PART
$#                                                                         title
Airbag 1
$#     pid     secid       mid     eosid      hgid      grav    adpopt      tmid
         1         1         1         0         0         0         0         0
*SECTION_SHELL_TITLE
Shell
$#   secid    elform      shrf       nip     propt   qr/irid     icomp     setyp
         1         5       1.0         4       1.0         0         0         1
$#      t1        t2        t3        t4      nloc     marea      idof    edgset
       0.4       0.4       0.4       0.4       0.0       0.0       0.0         0
*PART
$#                                                                         title
Airbag 2
$#     pid     secid       mid     eosid      hgid      grav    adpopt      tmid
         2         1         1         0         0         0         0         0
*PART
$#                                                                         title
Gas Nozzle
$#     pid     secid       mid     eosid      hgid      grav    adpopt      tmid
         3         1         2         0         0         0         0         0
*DEFINE_CURVE_TITLE
Mass Flow Rate
$#    lcid      sidr       sfa       sfo      offa      offo    dattyp     lcint
         1         0       1.0       1.0       0.0       0.0         0         0
$#                a1                  o1
                 0.0                 0.0
                30.0                0.01
                40.0                 0.0
*AIRBAG_SIMPLE_AIRBAG_MODEL
$#     sid    sidtyp      rbid      vsca      psca      vini       mwd      spsf
         1         1         0       1.0       1.0       0.0       0.0       0.0
$#      cv        cp         t      lcid        mu      area        pe        ro
   196.168     274.6     800.0         1       0.7       0.01.01300E-41.22500E-9
$#     lou      text         a         b        mw      gasc
         0       0.0       0.0       0.0       0.0       0.0
*ELEMENT_SHELL
$#   eid     pid      n1      n2      n3      n4      n5      n6      n7      n8
       1       1       1      13      14      14       0       0       0       0
       2       1       1      14      15       2       0       0       0       0
       3       1       2      15      16       3       0       0       0       0
       4       1       3      16      17       4       0       0       0       0
       5       1       4      17      18       5       0       0       0       0
       6       1       5      18      19       6       0       0       0       0
       7       1       6      19      20       7       0       0       0       0
       8       1       7      20      21       8       0       0       0       0
       9       1       8      21      22       9       0       0       0       0
      10       1       9      22      23      23       0       0       0       0
      11       1      10      28      29      29       0       0       0       0
      12       1      10      29      30      11       0       0       0       0
      13       1      11      30      31      12       0       0       0       0
      14       1      12      31      32      13       0       0       0       0
      15       1      13      32      33      14       0       0       0       0
      16       1      14      33      34      15       0       0       0       0
      17       1      15      34      35      16       0       0       0       0
      18       1      16      35      36      17       0       0       0       0
      19       1      17      36      37      18       0       0       0       0
      20       1      18      37      38      19       0       0       0       0
$ ... 3128 like lines cut
*NODE
$#   nid               x               y               z      tc      rc
       1       -296.1819        -47.4362             0.5       0       0
       2       -297.8266       -35.77156             0.5       0       0
       3       -299.0211       -23.93842             0.5       0       0
       4       -299.7487       -11.99474             0.5       0       0
       5          -300.0   -1.029075e-12             0.5       0       0
       6       -299.7487        11.99474             0.5       0       0
       7       -299.0211        23.93841             0.5       0       0
       8       -297.8266        35.77156             0.5       0       0
       9       -296.1819        47.43619             0.5       0       0
      10       -284.5422        -94.8765             0.5       0       0
      11       -287.9558       -83.98766             0.5       0       0
      12       -291.0203       -72.70839             0.5       0       0
      13         -293.69       -61.08542             0.5       0       0
      14       -288.6786       -49.56059             0.0       0       0
      15          -288.0           -36.0             0.0       0       0
      16          -288.0           -24.0             0.0       0       0
      17          -288.0           -12.0             0.0       0       0
      18          -288.0             0.0             0.0       0       0
      19          -288.0            12.0             0.0       0       0
      20          -288.0            24.0             0.0       0       0
$ ... 3125 like lines cut
*SET_PART_LIST_TITLE
Airbag
$#     sid       da1       da2       da3       da4    solver
         1       0.0       0.0       0.0       0.0MECH
$#    pid1      pid2      pid3      pid4      pid5      pid6      pid7      pid8
         1         2         0         0         0         0         0         0
*END
