$# LS-DYNA Keyword file created by LS-PrePost(R) V4.10.5-23Jun2023
$# Created on Aug-22-2024 (15:09:04)
*KEYWORD
*TITLE
$#                                                                         title
LS-DYNA keyword deck by LS-PrePost
*CONTROL_TERMINATION
      20.0         0       0.0       0.01.000000E8         0
*CONTROL_TIMESTEP
1.00000E-8       0.0         0       0.0       0.0         0         0         0
*DATABASE_ABSTAT
       0.5         0         0         1
*DATABASE_BINARY_D3PLOT
       0.5         0         0         0         0
*LOAD_GRAVITY_PART_SET
         1         3         0      1.62         0         0         0
*CONTACT_AUTOMATIC_ONE_WAY_SURFACE_TO_SURFACE_ID
         1bag to base
         1         8         2         3         0         0         0         0
       0.0       0.0       0.0       0.0       0.0         0       0.01.00000E20
       1.0       1.0       0.0       0.0       1.0       1.0       1.0       1.0
*SET_PART_LIST_TITLE
airbag
         1       0.0       0.0       0.0       0.0MECH
         1         2         6         0         0         0         0         0
*CONTACT_AUTOMATIC_SURFACE_TO_SURFACE_ID
         0bag on anchor
         1         1         2         0         0         0         0         0
       0.0       0.0       0.0       0.0       0.0         0       0.01.00000E20
       1.0       1.0       0.0       0.0       1.0       1.0       1.0       1.0
         2       0.1         0     1.025       2.0         2         0         1
*SET_SEGMENT
         1       0.0       0.0       0.0       0.0MECH               0          
     25090     25103     25104     25091       0.0       0.0       0.0       0.0
     24835     24848     24849     24836       0.0       0.0       0.0       0.0
     25091     25104     25105     25092       0.0       0.0       0.0       0.0
     24836     24849     24850     24837       0.0       0.0       0.0       0.0
     25092     25105     25106     25093       0.0       0.0       0.0       0.0
     24837     24850     24851     24838       0.0       0.0       0.0       0.0
     25093     25106     25107     25094       0.0       0.0       0.0       0.0
     24838     24851     24852     24839       0.0       0.0       0.0       0.0
     25094     25107     25108     25095       0.0       0.0       0.0       0.0
     24839     24852     24853     24840       0.0       0.0       0.0       0.0
     25095     25108     25109     25096       0.0       0.0       0.0       0.0
     24840     24853     24854     24841       0.0       0.0       0.0       0.0
     24842     24857     24858     24843       0.0       0.0       0.0       0.0
     24843     24858     24859     24844       0.0       0.0       0.0       0.0
     25099     25110     25111     25100       0.0       0.0       0.0       0.0
     24844     24859     24860     24845       0.0       0.0       0.0       0.0
     25100     25111     25112     25101       0.0       0.0       0.0       0.0
     24845     24860     24861     24846       0.0       0.0       0.0       0.0
     24820     24830     24831     24831       0.0       0.0       0.0       0.0
     25101     25112     25113     25102       0.0       0.0       0.0       0.0
$ ... 276 like lines cut
*MAT_FABRIC_TITLE
Airbag
         1    1440.01.50000E111.00000E11                 0.2       0.2          
      0.04                           1.03.000000E9      0.35       0.1       0.2
       0.0       0.0       0.0       0.0       0.0         0         2       0.0
                 0.0         1       0.0       0.0       0.0       0.0       0.0
       0.0       0.0       0.0                                     0.0         0
*MAT_RIGID_TITLE
gas nozzle
         2    2400.03.000000E9       0.3       0.0       0.0       0.0          
       1.0         7         7
       0.0       0.0       0.0       0.0       0.0       0.0
*MAT_FABRIC_TITLE
Porous fabric
         4    1440.01.00000E118.00000E10                 0.2       0.2          
      0.04                           1.03.000000E9      0.35       0.1       0.2
       0.0       0.0       0.0       0.0       0.0         0         1       0.0
                 0.0         1       0.0       0.0       0.0       0.0       0.0
       0.0       0.0       0.0                                     0.0         0
*MAT_RIGID_TITLE
anchor
         5    2400.03.000000E9       0.3       0.0       0.0       0.0          
       1.0         7         7
       0.0       0.0       0.0       0.0       0.0       0.0
*PART
fabric (bottom)
         1         1         1         0         0         0         0         0
*SECTION_SHELL_TITLE
Shell
         1         5       1.0         1       1.0         0         0         1
      0.25      0.25      0.25      0.25       0.0       0.0       0.0         0
*PART
null
         2         1         4         0         0         0         0         0
*PART
gas nozzle
         3         1         2         0         0         0         0         0
*PART
fabric (top)
         6         1         1         0         0         0         0         0
*PART
base
         8         1         2         0         0         0         0         0
*PART
head / nut
         9         2         5         0         0         0         0         0
*SECTION_SHELL_TITLE
anchor
         2         5       1.0         1       1.0         0         0         1
      0.25      0.25      0.25      0.25       0.0       0.0       0.0         0
*PART
bolt
        10         3         5         0         0         0         0         0
*SECTION_BEAM_TITLE
anchor (beam)
         3         1       1.0         2         1       0.0       0.0         0
      0.14      0.14       0.0       0.0       0.0       0.0
*DEFINE_CURVE_TITLE
Mass Flow Rate
         1         0       1.0       1.0       0.0       0.0         0         0
                 0.0                 0.0
                10.0               650.0
                15.0                 0.0
*AIRBAG_WANG_NEFSKE_ID
         1                                                                      
         1         1         0       1.0       1.0       0.0       0.0       0.0
     896.0    1204.0    3600.0         0         1       0.0         0     260.0
       0.0         0       0.0         0       0.0         0    1500.0         0
3.0000E-103.9000E-15       0.0         0       0.0       0.0         1         0
       0.0       0.0       0.0       0.0       0.0         0
*CONSTRAINED_ADAPTIVITY
     34198      4510      4538
     34201      4510      4514
     34204      4514      4516
     34207      4516      4520
     34210      4520      4525
     34214      4525      4528
     34216      4528      4530
     34219      4530      4552
     34221      4539      4565
     34224      4538      4539
     34226      4552      4557
     34229      4557      4570
     34231      4564      4579
     34234      4564      4565
     34236      4570      4574
     34239      4574      4588
     34241      4579      4595
     34243      4588      4600
     34245      4595      4606
     34247      4600      4610
$ ... 124 like lines cut
*ELEMENT_SHELL
       1       6       1   29722   29725   29724       0       0       0       0
       2       1       1   29724   34388   29831       0       0       0       0
       3       1       2   34387   34391   29835       0       0       0       0
       4       1       3   34390   34394   29839       0       0       0       0
       5       1       4   34393   34397   29843       0       0       0       0
       6       1       5   34396   34400   29847       0       0       0       0
       7       1       6   34399   34403   29851       0       0       0       0
       8       1       7   34402   34406   29855       0       0       0       0
       9       1       8   34405   34409   29859       0       0       0       0
      10       1       9   34408   34411   29862       0       0       0       0
      11       6      10   29726   29729   29728       0       0       0       0
      12       1      10   29728   34414   29869       0       0       0       0
      13       1      11   34413   34417   29873       0       0       0       0
      14       1      12   34416   34420   29877       0       0       0       0
      15       1      13   34419   34423   29723       0       0       0       0
      16       1      14   34422   34426   34386       0       0       0       0
      17       1      15   34425   34429   34389       0       0       0       0
      18       1      16   34428   34432   34392       0       0       0       0
      19       1      17   34431   34435   34395       0       0       0       0
      20       1      18   34434   34438   34398       0       0       0       0
$ ... 21676 like lines cut
*ELEMENT_BEAM
   16763      10   25135   25134       0       0       0       0       0       2
   19963      10   29061   29060       0       0       0       0       0       2
   21148      10   29391   29390       0       0       0       0       0       2
   21149      10   29721   29720       0       0       0       0       0       2
*NODE
       1       -29.61819       -4.743619             0.5       0       0
       2       -29.78266       -3.577157             0.5       0       0
       3       -29.90211       -2.393841             0.5       0       0
       4       -29.97487       -1.199472             0.5       0       0
       5           -30.0   -1.029075e-13             0.5       0       0
       6       -29.97487        1.199474             0.5       0       0
       7       -29.90211        2.393843             0.5       0       0
       8       -29.78266        3.577159             0.5       0       0
       9       -29.61819        4.743619             0.5       0       0
      10       -28.45422       -9.487651             0.5       0       0
      11       -28.79558       -8.398766             0.5       0       0
      12       -29.10203        -7.27084             0.5       0       0
      13         -29.369       -6.108542             0.5       0       0
      14       -28.86786       -4.956059             0.0       0       0
      15           -28.8            -3.6             0.0       0       0
      16           -28.8            -2.4             0.0       0       0
      17           -28.8       -1.199999             0.0       0       0
      18           -28.8             0.0             0.0       0       0
      19           -28.8        1.200001             0.0       0       0
      20           -28.8        2.400002             0.0       0       0
$ ... 23168 like lines cut
*END
