 Airbag                                                                  
                    ls-dyna smp d R13 R13.1.1_27_8731a0 date 07/28/2023


 dt of cycle       1 is controlled by shell          24917 of part         4

 time...........................   0.00000E+00
 time step......................   2.55925E-06
 kinetic energy.................   0.00000E+00
 internal energy................   2.04235E+03
 spring and damper energy.......   1.00000E-20
 hourglass energy ..............   0.00000E+00
 system damping energy..........   0.00000E+00
 sliding interface energy.......   0.00000E+00
 external work..................   0.00000E+00
 eroded kinetic energy..........   0.00000E+00
 eroded internal energy.........   0.00000E+00
 eroded hourglass energy........   0.00000E+00
 total energy...................   2.04235E+03
 total energy / initial energy..   1.00000E+00
 energy ratio w/o eroded energy.   1.00000E+00
 global x velocity..............   0.00000E+00
 global y velocity..............   0.00000E+00
 global z velocity..............   0.00000E+00
 time per zone cycle.(nanosec)..             0


 dt of cycle       4 is controlled by shell          24917 of part         4

 time...........................   7.67774E-06
 time step......................   2.55925E-06
 kinetic energy.................   1.41357E-01
 internal energy................   2.04433E+03
 spring and damper energy.......   1.00000E-20
 hourglass energy ..............   1.34441E-07
 system damping energy..........   0.00000E+00
 sliding interface energy.......   0.00000E+00
 external work..................  -2.73899E-03
 eroded kinetic energy..........   0.00000E+00
 eroded internal energy.........   0.00000E+00
 eroded hourglass energy........   0.00000E+00
 total energy...................   2.04447E+03
 total energy / initial energy..   1.00104E+00
 energy ratio w/o eroded energy.   1.00104E+00
 global x velocity..............   1.25458E-22
 global y velocity..............   1.62932E-06
 global z velocity..............   3.30001E-24
 time per zone cycle.(nanosec)..             0


 dt of cycle       8 is controlled by shell          24917 of part         4

 time...........................   1.79147E-05
 time step......................   2.55925E-06
 kinetic energy.................   4.39440E-01
 internal energy................   2.05129E+03
 spring and damper energy.......   1.00000E-20
 hourglass energy ..............   3.51676E-05
 system damping energy..........   0.00000E+00
 sliding interface energy.......   0.00000E+00
 external work..................  -4.80208E-02
 eroded kinetic energy..........   0.00000E+00
 eroded internal energy.........   0.00000E+00
 eroded hourglass energy........   0.00000E+00
 total energy...................   2.05173E+03
 total energy / initial energy..   1.00462E+00
 energy ratio w/o eroded energy.   1.00462E+00
 global x velocity..............   4.18981E-22
 global y velocity..............   3.57244E-06
 global z velocity..............   1.00690E-20
 time per zone cycle.(nanosec)..             0


 dt of cycle      12 is controlled by shell          24917 of part         4

 time...........................   2.81517E-05
 time step......................   2.55925E-06
 kinetic energy.................   7.65559E-01
 internal energy................   2.05970E+03
 spring and damper energy.......   1.00000E-20
 hourglass energy ..............   3.93371E-04
 system damping energy..........   0.00000E+00
 sliding interface energy.......   0.00000E+00
 external work..................  -2.20317E-01
 eroded kinetic energy..........   0.00000E+00
 eroded internal energy.........   0.00000E+00
 eroded hourglass energy........   0.00000E+00
 total energy...................   2.06046E+03
 total energy / initial energy..   1.00898E+00
 energy ratio w/o eroded energy.   1.00898E+00
 global x velocity..............   7.56856E-22
 global y velocity..............   5.56255E-06
 global z velocity..............   5.20864E-18
 time per zone cycle.(nanosec)..             0


 dt of cycle      16 is controlled by shell          24917 of part         4

 time...........................   3.83887E-05
 time step......................   2.55925E-06
 kinetic energy.................   1.13012E+00
 internal energy................   2.06746E+03
 spring and damper energy.......   1.00000E-20
 hourglass energy ..............   1.57686E-03
 system damping energy..........   0.00000E+00
 sliding interface energy.......   0.00000E+00
 external work..................  -6.08721E-01
 eroded kinetic energy..........   0.00000E+00
 eroded internal energy.........   0.00000E+00
 eroded hourglass energy........   0.00000E+00
 total energy...................   2.06859E+03
 total energy / initial energy..   1.01315E+00
 energy ratio w/o eroded energy.   1.01315E+00
 global x velocity..............   2.10804E-21
 global y velocity..............   7.53472E-06
 global z velocity..............   1.58737E-16
 time per zone cycle.(nanosec)..             0


 dt of cycle      20 is controlled by shell          24917 of part         4

 time...........................   4.86257E-05
 time step......................   2.55925E-06
 kinetic energy.................   1.52859E+00
 internal energy................   2.07402E+03
 spring and damper energy.......   1.00000E-20
 hourglass energy ..............   3.66622E-03
 system damping energy..........   0.00000E+00
 sliding interface energy.......   0.00000E+00
 external work..................  -1.27240E+00
 eroded kinetic energy..........   0.00000E+00
 eroded internal energy.........   0.00000E+00
 eroded hourglass energy........   0.00000E+00
 total energy...................   2.07555E+03
 total energy / initial energy..   1.01689E+00
 energy ratio w/o eroded energy.   1.01689E+00
 global x velocity..............   3.08881E-21
 global y velocity..............   9.46622E-06
 global z velocity..............   1.78692E-15
 time per zone cycle.(nanosec)..             0


 dt of cycle      24 is controlled by shell          24917 of part         4

 time...........................   5.88626E-05
 time step......................   2.55925E-06
 kinetic energy.................   1.95388E+00
 internal energy................   2.07973E+03
 spring and damper energy.......   1.00000E-20
 hourglass energy ..............   6.25255E-03
 system damping energy..........   0.00000E+00
 sliding interface energy.......   0.00000E+00
 external work..................  -2.22673E+00
 eroded kinetic energy..........   0.00000E+00
 eroded internal energy.........   0.00000E+00
 eroded hourglass energy........   0.00000E+00
 total energy...................   2.08169E+03
 total energy / initial energy..   1.02038E+00
 energy ratio w/o eroded energy.   1.02038E+00
 global x velocity..............  -5.51233E-21
 global y velocity..............   1.13685E-05
 global z velocity..............   1.05864E-14
 time per zone cycle.(nanosec)..             0


 dt of cycle      28 is controlled by shell          24917 of part         4

 time...........................   6.90996E-05
 time step......................   2.55925E-06
 kinetic energy.................   2.41006E+00
 internal energy................   2.08499E+03
 spring and damper energy.......   1.00000E-20
 hourglass energy ..............   8.91971E-03
 system damping energy..........   0.00000E+00
 sliding interface energy.......   0.00000E+00
 external work..................  -3.45792E+00
 eroded kinetic energy..........   0.00000E+00
 eroded internal energy.........   0.00000E+00
 eroded hourglass energy........   0.00000E+00
 total energy...................   2.08741E+03
 total energy / initial energy..   1.02380E+00
 energy ratio w/o eroded energy.   1.02380E+00
 global x velocity..............  -2.56608E-20
 global y velocity..............   1.32581E-05
 global z velocity..............   3.78538E-14
 time per zone cycle.(nanosec)..             0


 dt of cycle      32 is controlled by shell          24917 of part         4

 time...........................   7.93366E-05
 time step......................   2.55925E-06
 kinetic energy.................   2.89969E+00
 internal energy................   2.08990E+03
 spring and damper energy.......   1.00000E-20
 hourglass energy ..............   1.14981E-02
 system damping energy..........   0.00000E+00
 sliding interface energy.......   0.00000E+00
 external work..................  -4.94653E+00
 eroded kinetic energy..........   0.00000E+00
 eroded internal energy.........   0.00000E+00
 eroded hourglass energy........   0.00000E+00
 total energy...................   2.09281E+03
 total energy / initial energy..   1.02720E+00
 energy ratio w/o eroded energy.   1.02720E+00
 global x velocity..............   2.24295E-20
 global y velocity..............   1.51394E-05
 global z velocity..............   7.10064E-14
 time per zone cycle.(nanosec)..             0


 dt of cycle      36 is controlled by shell          24917 of part         4

 time...........................   8.95736E-05
 time step......................   2.55925E-06
 kinetic energy.................   3.41660E+00
 internal energy................   2.09441E+03
 spring and damper energy.......   1.00000E-20
 hourglass energy ..............   1.39659E-02
 system damping energy..........   0.00000E+00
 sliding interface energy.......   0.00000E+00
 external work..................  -6.67950E+00
 eroded kinetic energy..........   0.00000E+00
 eroded internal energy.........   0.00000E+00
 eroded hourglass energy........   0.00000E+00
 total energy...................   2.09784E+03
 total energy / initial energy..   1.03054E+00
 energy ratio w/o eroded energy.   1.03054E+00
 global x velocity..............   2.92217E-19
 global y velocity..............   1.70085E-05
 global z velocity..............  -3.56844E-14
 time per zone cycle.(nanosec)..             0


 dt of cycle      40 is controlled by shell          24917 of part         4

 time...........................   9.98106E-05
 time step......................   2.55925E-06
 kinetic energy.................   3.95714E+00
 internal energy................   2.09852E+03
 spring and damper energy.......   1.00000E-20
 hourglass energy ..............   1.63224E-02
 system damping energy..........   0.00000E+00
 sliding interface energy.......   0.00000E+00
 external work..................  -8.65624E+00
 eroded kinetic energy..........   0.00000E+00
 eroded internal energy.........   0.00000E+00
 eroded hourglass energy........   0.00000E+00
 total energy...................   2.10250E+03
 total energy / initial energy..   1.03383E+00
 energy ratio w/o eroded energy.   1.03383E+00
 global x velocity..............  -5.84011E-19
 global y velocity..............   1.88656E-05
 global z velocity..............  -7.84849E-13
 time per zone cycle.(nanosec)..             0


 dt of cycle      43 is controlled by shell          24917 of part         4

 time...........................   1.07488E-04
 time step......................   2.55925E-06
 kinetic energy.................   4.37938E+00
 internal energy................   2.10139E+03
 spring and damper energy.......   1.00000E-20
 hourglass energy ..............   1.80475E-02
 system damping energy..........   0.00000E+00
 sliding interface energy.......   0.00000E+00
 external work..................  -1.03004E+01
 eroded kinetic energy..........   0.00000E+00
 eroded internal energy.........   0.00000E+00
 eroded hourglass energy........   0.00000E+00
 total energy...................   2.10578E+03
 total energy / initial energy..   1.03629E+00
 energy ratio w/o eroded energy.   1.03629E+00
 global x velocity..............  -4.19444E-19
 global y velocity..............   2.02527E-05
 global z velocity..............  -2.42581E-12
 time per zone cycle.(nanosec)..             0


 dt of cycle      47 is controlled by shell          24917 of part         4

 time...........................   1.17725E-04
 time step......................   2.55925E-06
 kinetic energy.................   4.96409E+00
 internal energy................   2.10493E+03
 spring and damper energy.......   1.00000E-20
 hourglass energy ..............   2.03078E-02
 system damping energy..........   0.00000E+00
 sliding interface energy.......   0.00000E+00
 external work..................  -1.27082E+01
 eroded kinetic energy..........   0.00000E+00
 eroded internal energy.........   0.00000E+00
 eroded hourglass energy........   0.00000E+00
 total energy...................   2.10992E+03
 total energy / initial energy..   1.03955E+00
 energy ratio w/o eroded energy.   1.03955E+00
 global x velocity..............  -5.37716E-19
 global y velocity..............   2.20936E-05
 global z velocity..............  -7.51054E-12
 time per zone cycle.(nanosec)..             0


 dt of cycle      51 is controlled by shell          24917 of part         4

 time...........................   1.27962E-04
 time step......................   2.55925E-06
 kinetic energy.................   5.56877E+00
 internal energy................   2.10807E+03
 spring and damper energy.......   1.00000E-20
 hourglass energy ..............   2.25198E-02
 system damping energy..........   0.00000E+00
 sliding interface energy.......   0.00000E+00
 external work..................  -1.53627E+01
 eroded kinetic energy..........   0.00000E+00
 eroded internal energy.........   0.00000E+00
 eroded hourglass energy........   0.00000E+00
 total energy...................   2.11366E+03
 total energy / initial energy..   1.04276E+00
 energy ratio w/o eroded energy.   1.04276E+00
 global x velocity..............  -6.09693E-19
 global y velocity..............   2.39180E-05
 global z velocity..............  -1.82241E-11
 time per zone cycle.(nanosec)..             0


 dt of cycle      55 is controlled by shell          24917 of part         4

 time...........................   1.38199E-04
 time step......................   2.55925E-06
 kinetic energy.................   6.18872E+00
 internal energy................   2.11069E+03
 spring and damper energy.......   1.00000E-20
 hourglass energy ..............   2.46549E-02
 system damping energy..........   0.00000E+00
 sliding interface energy.......   0.00000E+00
 external work..................  -1.82612E+01
 eroded kinetic energy..........   0.00000E+00
 eroded internal energy.........   0.00000E+00
 eroded hourglass energy........   0.00000E+00
 total energy...................   2.11690E+03
 total energy / initial energy..   1.04586E+00
 energy ratio w/o eroded energy.   1.04586E+00
 global x velocity..............  -1.78760E-19
 global y velocity..............   2.57197E-05
 global z velocity..............  -3.76333E-11
 time per zone cycle.(nanosec)..             0


 dt of cycle      59 is controlled by shell          24917 of part         4

 time...........................   1.48436E-04
 time step......................   2.55925E-06
 kinetic energy.................   6.82252E+00
 internal energy................   2.11278E+03
 spring and damper energy.......   1.00000E-20
 hourglass energy ..............   2.66705E-02
 system damping energy..........   0.00000E+00
 sliding interface energy.......   0.00000E+00
 external work..................  -2.13931E+01
 eroded kinetic energy..........   0.00000E+00
 eroded internal energy.........   0.00000E+00
 eroded hourglass energy........   0.00000E+00
 total energy...................   2.11963E+03
 total energy / initial energy..   1.04883E+00
 energy ratio w/o eroded energy.   1.04883E+00
 global x velocity..............   5.56893E-19
 global y velocity..............   2.74997E-05
 global z velocity..............  -6.90048E-11
 time per zone cycle.(nanosec)..             0


 dt of cycle      63 is controlled by shell          24917 of part         4

 time...........................   1.58673E-04
 time step......................   2.55925E-06
 kinetic energy.................   7.47107E+00
 internal energy................   2.11444E+03
 spring and damper energy.......   1.00000E-20
 hourglass energy ..............   2.85438E-02
 system damping energy..........   0.00000E+00
 sliding interface energy.......   0.00000E+00
 external work..................  -2.47438E+01
 eroded kinetic energy..........   0.00000E+00
 eroded internal energy.........   0.00000E+00
 eroded hourglass energy........   0.00000E+00
 total energy...................   2.12194E+03
 total energy / initial energy..   1.05171E+00
 energy ratio w/o eroded energy.   1.05171E+00
 global x velocity..............   1.35489E-18
 global y velocity..............   2.92637E-05
 global z velocity..............  -1.15200E-10
 time per zone cycle.(nanosec)..             0


 dt of cycle      67 is controlled by shell          24917 of part         4

 time...........................   1.68910E-04
 time step......................   2.55925E-06
 kinetic energy.................   8.13488E+00
 internal energy................   2.11574E+03
 spring and damper energy.......   1.00000E-20
 hourglass energy ..............   3.02845E-02
 system damping energy..........   0.00000E+00
 sliding interface energy.......   0.00000E+00
 external work..................  -2.83019E+01
 eroded kinetic energy..........   0.00000E+00
 eroded internal energy.........   0.00000E+00
 eroded hourglass energy........   0.00000E+00
 total energy...................   2.12390E+03
 total energy / initial energy..   1.05455E+00
 energy ratio w/o eroded energy.   1.05455E+00
 global x velocity..............   2.07534E-18
 global y velocity..............   3.10163E-05
 global z velocity..............  -1.78332E-10
 time per zone cycle.(nanosec)..             0


 dt of cycle      71 is controlled by shell          24917 of part         4

 time...........................   1.79147E-04
 time step......................   2.55925E-06
 kinetic energy.................   8.81307E+00
 internal energy................   2.11671E+03
 spring and damper energy.......   1.00000E-20
 hourglass energy ..............   3.19115E-02
 system damping energy..........   0.00000E+00
 sliding interface energy.......   0.00000E+00
 external work..................  -3.20618E+01
 eroded kinetic energy..........   0.00000E+00
 eroded internal energy.........   0.00000E+00
 eroded hourglass energy........   0.00000E+00
 total energy...................   2.12556E+03
 total energy / initial energy..   1.05734E+00
 energy ratio w/o eroded energy.   1.05734E+00
 global x velocity..............   2.09426E-18
 global y velocity..............   3.27586E-05
 global z velocity..............  -2.59716E-10
 time per zone cycle.(nanosec)..             0


 dt of cycle      75 is controlled by shell          24917 of part         4

 time...........................   1.89384E-04
 time step......................   2.55925E-06
 kinetic energy.................   9.50322E+00
 internal energy................   2.11735E+03
 spring and damper energy.......   1.00000E-20
 hourglass energy ..............   3.34393E-02
 system damping energy..........   0.00000E+00
 sliding interface energy.......   0.00000E+00
 external work..................  -3.60224E+01
 eroded kinetic energy..........   0.00000E+00
 eroded internal energy.........   0.00000E+00
 eroded hourglass energy........   0.00000E+00
 total energy...................   2.12689E+03
 total energy / initial energy..   1.06009E+00
 energy ratio w/o eroded energy.   1.06009E+00
 global x velocity..............   3.22123E-19
 global y velocity..............   3.44892E-05
 global z velocity..............  -3.59824E-10
 time per zone cycle.(nanosec)..             0


 dt of cycle      79 is controlled by shell          24917 of part         4

 time...........................   1.99621E-04
 time step......................   2.55925E-06
 kinetic energy.................   1.02026E+01
 internal energy................   2.11766E+03
 spring and damper energy.......   1.00000E-20
 hourglass energy ..............   3.48781E-02
 system damping energy..........   0.00000E+00
 sliding interface energy.......   0.00000E+00
 external work..................  -4.01815E+01
 eroded kinetic energy..........   0.00000E+00
 eroded internal energy.........   0.00000E+00
 eroded hourglass energy........   0.00000E+00
 total energy...................   2.12790E+03
 total energy / initial energy..   1.06280E+00
 energy ratio w/o eroded energy.   1.06280E+00
 global x velocity..............  -4.37185E-18
 global y velocity..............   3.62071E-05
 global z velocity..............  -4.78453E-10
 time per zone cycle.(nanosec)..             0


 dt of cycle      83 is controlled by shell          24917 of part         4

 time...........................   2.09858E-04
 time step......................   2.55925E-06
 kinetic energy.................   1.09092E+01
 internal energy................   2.11764E+03
 spring and damper energy.......   1.00000E-20
 hourglass energy ..............   3.62355E-02
 system damping energy..........   0.00000E+00
 sliding interface energy.......   0.00000E+00
 external work..................  -4.45351E+01
 eroded kinetic energy..........   0.00000E+00
 eroded internal energy.........   0.00000E+00
 eroded hourglass energy........   0.00000E+00
 total energy...................   2.12858E+03
 total energy / initial energy..   1.06546E+00
 energy ratio w/o eroded energy.   1.06546E+00
 global x velocity..............  -9.64459E-18
 global y velocity..............   3.79119E-05
 global z velocity..............  -6.14994E-10
 time per zone cycle.(nanosec)..             0


 dt of cycle      86 is controlled by shell          24917 of part         4

 time...........................   2.17536E-04
 time step......................   2.55925E-06
 kinetic energy.................   1.14429E+01
 internal energy................   2.11742E+03
 spring and damper energy.......   1.00000E-20
 hourglass energy ..............   3.72035E-02
 system damping energy..........   0.00000E+00
 sliding interface energy.......   0.00000E+00
 external work..................  -4.79244E+01
 eroded kinetic energy..........   0.00000E+00
 eroded internal energy.........   0.00000E+00
 eroded hourglass energy........   0.00000E+00
 total energy...................   2.12890E+03
 total energy / initial energy..   1.06742E+00
 energy ratio w/o eroded energy.   1.06742E+00
 global x velocity..............  -8.55835E-18
 global y velocity..............   3.91821E-05
 global z velocity..............  -7.28541E-10
 time per zone cycle.(nanosec)..             0


 dt of cycle      90 is controlled by shell          24917 of part         4

 time...........................   2.27773E-04
 time step......................   2.55925E-06
 kinetic energy.................   1.21589E+01
 internal energy................   2.11685E+03
 spring and damper energy.......   1.00000E-20
 hourglass energy ..............   3.84307E-02
 system damping energy..........   0.00000E+00
 sliding interface energy.......   0.00000E+00
 external work..................  -5.26035E+01
 eroded kinetic energy..........   0.00000E+00
 eroded internal energy.........   0.00000E+00
 eroded hourglass energy........   0.00000E+00
 total energy...................   2.12905E+03
 total energy / initial energy..   1.07001E+00
 energy ratio w/o eroded energy.   1.07001E+00
 global x velocity..............   1.73475E-17
 global y velocity..............   4.08651E-05
 global z velocity..............  -8.93813E-10
 time per zone cycle.(nanosec)..             0


 dt of cycle      94 is controlled by shell          24917 of part         4

 time...........................   2.38010E-04
 time step......................   2.55925E-06
 kinetic energy.................   1.28791E+01
 internal energy................   2.11599E+03
 spring and damper energy.......   1.00000E-20
 hourglass energy ..............   3.95888E-02
 system damping energy..........   0.00000E+00
 sliding interface energy.......   0.00000E+00
 external work..................  -5.74588E+01
 eroded kinetic energy..........   0.00000E+00
 eroded internal energy.........   0.00000E+00
 eroded hourglass energy........   0.00000E+00
 total energy...................   2.12891E+03
 total energy / initial energy..   1.07256E+00
 energy ratio w/o eroded energy.   1.07256E+00
 global x velocity..............   1.14154E-16
 global y velocity..............   4.25366E-05
 global z velocity..............  -1.07364E-09
 time per zone cycle.(nanosec)..             0


 dt of cycle      98 is controlled by shell          24917 of part         4

 time...........................   2.48247E-04
 time step......................   2.55925E-06
 kinetic energy.................   1.36028E+01
 internal energy................   2.11486E+03
 spring and damper energy.......   1.00000E-20
 hourglass energy ..............   4.06819E-02
 system damping energy..........   0.00000E+00
 sliding interface energy.......   0.00000E+00
 external work..................  -6.24828E+01
 eroded kinetic energy..........   0.00000E+00
 eroded internal energy.........   0.00000E+00
 eroded hourglass energy........   0.00000E+00
 total energy...................   2.12850E+03
 total energy / initial energy..   1.07507E+00
 energy ratio w/o eroded energy.   1.07507E+00
 global x velocity..............   3.80802E-16
 global y velocity..............   4.41977E-05
 global z velocity..............  -1.26639E-09
 time per zone cycle.(nanosec)..             0


 dt of cycle     102 is controlled by shell          24917 of part         4

 time...........................   2.58484E-04
 time step......................   2.55925E-06
 kinetic energy.................   1.43293E+01
 internal energy................   2.11347E+03
 spring and damper energy.......   1.00000E-20
 hourglass energy ..............   4.17143E-02
 system damping energy..........   0.00000E+00
 sliding interface energy.......   0.00000E+00
 external work..................  -6.76682E+01
 eroded kinetic energy..........   0.00000E+00
 eroded internal energy.........   0.00000E+00
 eroded hourglass energy........   0.00000E+00
 total energy...................   2.12784E+03
 total energy / initial energy..   1.07756E+00
 energy ratio w/o eroded energy.   1.07756E+00
 global x velocity..............   1.03384E-15
 global y velocity..............   4.58492E-05
 global z velocity..............  -1.47016E-09
 time per zone cycle.(nanosec)..             0


 dt of cycle     106 is controlled by shell          24917 of part         4

 time...........................   2.68721E-04
 time step......................   2.55925E-06
 kinetic energy.................   1.50578E+01
 internal energy................   2.11185E+03
 spring and damper energy.......   1.00000E-20
 hourglass energy ..............   4.26892E-02
 system damping energy..........   0.00000E+00
 sliding interface energy.......   0.00000E+00
 external work..................  -7.30080E+01
 eroded kinetic energy..........   0.00000E+00
 eroded internal energy.........   0.00000E+00
 eroded hourglass energy........   0.00000E+00
 total energy...................   2.12695E+03
 total energy / initial energy..   1.08003E+00
 energy ratio w/o eroded energy.   1.08003E+00
 global x velocity..............   2.51926E-15
 global y velocity..............   4.74918E-05
 global z velocity..............  -1.68285E-09
 time per zone cycle.(nanosec)..             0


 dt of cycle     110 is controlled by shell          24917 of part         4

 time...........................   2.78958E-04
 time step......................   2.55925E-06
 kinetic energy.................   1.57880E+01
 internal energy................   2.11002E+03
 spring and damper energy.......   1.00000E-20
 hourglass energy ..............   4.36095E-02
 system damping energy..........   0.00000E+00
 sliding interface energy.......   0.00000E+00
 external work..................  -7.84943E+01
 eroded kinetic energy..........   0.00000E+00
 eroded internal energy.........   0.00000E+00
 eroded hourglass energy........   0.00000E+00
 total energy...................   2.12585E+03
 total energy / initial energy..   1.08249E+00
 energy ratio w/o eroded energy.   1.08249E+00
 global x velocity..............   5.69058E-15
 global y velocity..............   4.91264E-05
 global z velocity..............  -1.90222E-09
 time per zone cycle.(nanosec)..             0


 dt of cycle     114 is controlled by shell          24917 of part         4

 time...........................   2.89195E-04
 time step......................   2.55925E-06
 kinetic energy.................   1.65200E+01
 internal energy................   2.10802E+03
 spring and damper energy.......   1.00000E-20
 hourglass energy ..............   4.44783E-02
 system damping energy..........   0.00000E+00
 sliding interface energy.......   0.00000E+00
 external work..................  -8.41179E+01
 eroded kinetic energy..........   0.00000E+00
 eroded internal energy.........   0.00000E+00
 eroded hourglass energy........   0.00000E+00
 total energy...................   2.12459E+03
 total energy / initial energy..   1.08495E+00
 energy ratio w/o eroded energy.   1.08495E+00
 global x velocity..............   1.20606E-14
 global y velocity..............   5.07544E-05
 global z velocity..............  -2.12599E-09
 time per zone cycle.(nanosec)..             0


 dt of cycle     118 is controlled by shell          24917 of part         4

 time...........................   2.99432E-04
 time step......................   2.55925E-06
 kinetic energy.................   1.72545E+01
 internal energy................   2.10589E+03
 spring and damper energy.......   1.00000E-20
 hourglass energy ..............   4.52988E-02
 system damping energy..........   0.00000E+00
 sliding interface energy.......   0.00000E+00
 external work..................  -8.98672E+01
 eroded kinetic energy..........   0.00000E+00
 eroded internal energy.........   0.00000E+00
 eroded hourglass energy........   0.00000E+00
 total energy...................   2.12319E+03
 total energy / initial energy..   1.08743E+00
 energy ratio w/o eroded energy.   1.08743E+00
 global x velocity..............   2.40118E-14
 global y velocity..............   5.23771E-05
 global z velocity..............  -2.35194E-09
 time per zone cycle.(nanosec)..             0


 dt of cycle     122 is controlled by shell          24917 of part         4

 time...........................   3.09669E-04
 time step......................   2.55925E-06
 kinetic energy.................   1.79922E+01
 internal energy................   2.10368E+03
 spring and damper energy.......   1.00000E-20
 hourglass energy ..............   4.60737E-02
 system damping energy..........   0.00000E+00
 sliding interface energy.......   0.00000E+00
 external work..................  -9.57284E+01
 eroded kinetic energy..........   0.00000E+00
 eroded internal energy.........   0.00000E+00
 eroded hourglass energy........   0.00000E+00
 total energy...................   2.12171E+03
 total energy / initial energy..   1.08995E+00
 energy ratio w/o eroded energy.   1.08995E+00
 global x velocity..............   4.48541E-14
 global y velocity..............   5.39964E-05
 global z velocity..............  -2.57744E-09
 time per zone cycle.(nanosec)..             0


 dt of cycle     126 is controlled by shell          24917 of part         4

 time...........................   3.19906E-04
 time step......................   2.55925E-06
 kinetic energy.................   1.87341E+01
 internal energy................   2.10142E+03
 spring and damper energy.......   1.00000E-20
 hourglass energy ..............   4.68061E-02
 system damping energy..........   0.00000E+00
 sliding interface energy.......   0.00000E+00
 external work..................  -1.01687E+02
 eroded kinetic energy..........   0.00000E+00
 eroded internal energy.........   0.00000E+00
 eroded hourglass energy........   0.00000E+00
 total energy...................   2.12020E+03
 total energy / initial energy..   1.09251E+00
 energy ratio w/o eroded energy.   1.09251E+00
 global x velocity..............   7.85387E-14
 global y velocity..............   5.56138E-05
 global z velocity..............  -2.80012E-09
 time per zone cycle.(nanosec)..             0


 dt of cycle     129 is controlled by shell          24917 of part         4

 time...........................   3.27583E-04
 time step......................   2.55925E-06
 kinetic energy.................   1.92939E+01
 internal energy................   2.09972E+03
 spring and damper energy.......   1.00000E-20
 hourglass energy ..............   4.73292E-02
 system damping energy..........   0.00000E+00
 sliding interface energy.......   0.00000E+00
 external work..................  -1.06210E+02
 eroded kinetic energy..........   0.00000E+00
 eroded internal energy.........   0.00000E+00
 eroded hourglass energy........   0.00000E+00
 total energy...................   2.11906E+03
 total energy / initial energy..   1.09448E+00
 energy ratio w/o eroded energy.   1.09448E+00
 global x velocity..............   1.14573E-13
 global y velocity..............   5.68264E-05
 global z velocity..............  -2.96385E-09
 time per zone cycle.(nanosec)..             0


 dt of cycle     133 is controlled by shell          24917 of part         4

 time...........................   3.37820E-04
 time step......................   2.55925E-06
 kinetic energy.................   2.00456E+01
 internal energy................   2.09748E+03
 spring and damper energy.......   1.00000E-20
 hourglass energy ..............   4.79943E-02
 system damping energy..........   0.00000E+00
 sliding interface energy.......   0.00000E+00
 external work..................  -1.12301E+02
 eroded kinetic energy..........   0.00000E+00
 eroded internal energy.........   0.00000E+00
 eroded hourglass energy........   0.00000E+00
 total energy...................   2.11757E+03
 total energy / initial energy..   1.09716E+00
 energy ratio w/o eroded energy.   1.09716E+00
 global x velocity..............   1.79154E-13
 global y velocity..............   5.84437E-05
 global z velocity..............  -3.17614E-09
 time per zone cycle.(nanosec)..             0


 dt of cycle     137 is controlled by shell          24917 of part         4

 time...........................   3.48057E-04
 time step......................   2.55925E-06
 kinetic energy.................   2.08039E+01
 internal energy................   2.09530E+03
 spring and damper energy.......   1.00000E-20
 hourglass energy ..............   4.86262E-02
 system damping energy..........   0.00000E+00
 sliding interface energy.......   0.00000E+00
 external work..................  -1.18450E+02
 eroded kinetic energy..........   0.00000E+00
 eroded internal energy.........   0.00000E+00
 eroded hourglass energy........   0.00000E+00
 total energy...................   2.11615E+03
 total energy / initial energy..   1.09993E+00
 energy ratio w/o eroded energy.   1.09993E+00
 global x velocity..............   2.62910E-13
 global y velocity..............   6.00621E-05
 global z velocity..............  -3.37970E-09
 time per zone cycle.(nanosec)..             0


 dt of cycle     141 is controlled by shell          24917 of part         4

 time...........................   3.58294E-04
 time step......................   2.55925E-06
 kinetic energy.................   2.15690E+01
 internal energy................   2.09321E+03
 spring and damper energy.......   1.00000E-20
 hourglass energy ..............   4.92287E-02
 system damping energy..........   0.00000E+00
 sliding interface energy.......   0.00000E+00
 external work..................  -1.24645E+02
 eroded kinetic energy..........   0.00000E+00
 eroded internal energy.........   0.00000E+00
 eroded hourglass energy........   0.00000E+00
 total energy...................   2.11483E+03
 total energy / initial energy..   1.10280E+00
 energy ratio w/o eroded energy.   1.10280E+00
 global x velocity..............   3.62769E-13
 global y velocity..............   6.16822E-05
 global z velocity..............  -3.57274E-09
 time per zone cycle.(nanosec)..             0


 dt of cycle     145 is controlled by shell          24917 of part         4

 time...........................   3.68531E-04
 time step......................   2.55925E-06
 kinetic energy.................   2.23406E+01
 internal energy................   2.09124E+03
 spring and damper energy.......   1.00000E-20
 hourglass energy ..............   4.98053E-02
 system damping energy..........   0.00000E+00
 sliding interface energy.......   0.00000E+00
 external work..................  -1.30876E+02
 eroded kinetic energy..........   0.00000E+00
 eroded internal energy.........   0.00000E+00
 eroded hourglass energy........   0.00000E+00
 total energy...................   2.11363E+03
 total energy / initial energy..   1.10576E+00
 energy ratio w/o eroded energy.   1.10576E+00
 global x velocity..............   4.72100E-13
 global y velocity..............   6.33043E-05
 global z velocity..............  -3.75366E-09
 time per zone cycle.(nanosec)..             0


 dt of cycle     149 is controlled by shell          24917 of part         4

 time...........................   3.78768E-04
 time step......................   2.55925E-06
 kinetic energy.................   2.31183E+01
 internal energy................   2.08939E+03
 spring and damper energy.......   1.00000E-20
 hourglass energy ..............   5.03589E-02
 system damping energy..........   0.00000E+00
 sliding interface energy.......   0.00000E+00
 external work..................  -1.37138E+02
 eroded kinetic energy..........   0.00000E+00
 eroded internal energy.........   0.00000E+00
 eroded hourglass energy........   0.00000E+00
 total energy...................   2.11256E+03
 total energy / initial energy..   1.10883E+00
 energy ratio w/o eroded energy.   1.10883E+00
 global x velocity..............   5.82268E-13
 global y velocity..............   6.49279E-05
 global z velocity..............  -3.92083E-09
 time per zone cycle.(nanosec)..             0


 dt of cycle     153 is controlled by shell          24917 of part         4

 time...........................   3.89005E-04
 time step......................   2.55925E-06
 kinetic energy.................   2.39012E+01
 internal energy................   2.08767E+03
 spring and damper energy.......   1.00000E-20
 hourglass energy ..............   5.08921E-02
 system damping energy..........   0.00000E+00
 sliding interface energy.......   0.00000E+00
 external work..................  -1.43426E+02
 eroded kinetic energy..........   0.00000E+00
 eroded internal energy.........   0.00000E+00
 eroded hourglass energy........   0.00000E+00
 total energy...................   2.11162E+03
 total energy / initial energy..   1.11201E+00
 energy ratio w/o eroded energy.   1.11201E+00
 global x velocity..............   6.85405E-13
 global y velocity..............   6.65525E-05
 global z velocity..............  -4.07322E-09
 time per zone cycle.(nanosec)..             0


 dt of cycle     157 is controlled by shell          24917 of part         4

 time...........................   3.99242E-04
 time step......................   2.55925E-06
 kinetic energy.................   2.46883E+01
 internal energy................   2.08607E+03
 spring and damper energy.......   1.00000E-20
 hourglass energy ..............   5.14073E-02
 system damping energy..........   0.00000E+00
 sliding interface energy.......   0.00000E+00
 external work..................  -1.49739E+02
 eroded kinetic energy..........   0.00000E+00
 eroded internal energy.........   0.00000E+00
 eroded hourglass energy........   0.00000E+00
 total energy...................   2.11081E+03
 total energy / initial energy..   1.11529E+00
 energy ratio w/o eroded energy.   1.11529E+00
 global x velocity..............   7.77706E-13
 global y velocity..............   6.81767E-05
 global z velocity..............  -4.21034E-09
 time per zone cycle.(nanosec)..             0


 dt of cycle     161 is controlled by shell          24917 of part         4

 time...........................   4.09479E-04
 time step......................   2.55925E-06
 kinetic energy.................   2.54785E+01
 internal energy................   2.08457E+03
 spring and damper energy.......   1.00000E-20
 hourglass energy ..............   5.19067E-02
 system damping energy..........   0.00000E+00
 sliding interface energy.......   0.00000E+00
 external work..................  -1.56076E+02
 eroded kinetic energy..........   0.00000E+00
 eroded internal energy.........   0.00000E+00
 eroded hourglass energy........   0.00000E+00
 total energy...................   2.11010E+03
 total energy / initial energy..   1.11866E+00
 energy ratio w/o eroded energy.   1.11866E+00
 global x velocity..............   8.61243E-13
 global y velocity..............   6.97994E-05
 global z velocity..............  -4.33237E-09
 time per zone cycle.(nanosec)..             0


 dt of cycle     165 is controlled by shell          24917 of part         4

 time...........................   4.19716E-04
 time step......................   2.55925E-06
 kinetic energy.................   2.62709E+01
 internal energy................   2.08318E+03
 spring and damper energy.......   1.00000E-20
 hourglass energy ..............   5.23916E-02
 system damping energy..........   0.00000E+00
 sliding interface energy.......   0.00000E+00
 external work..................  -1.62437E+02
 eroded kinetic energy..........   0.00000E+00
 eroded internal energy.........   0.00000E+00
 eroded hourglass energy........   0.00000E+00
 total energy...................   2.10950E+03
 total energy / initial energy..   1.12213E+00
 energy ratio w/o eroded energy.   1.12213E+00
 global x velocity..............   9.43693E-13
 global y velocity..............   7.14196E-05
 global z velocity..............  -4.43952E-09
 time per zone cycle.(nanosec)..             0


 dt of cycle     169 is controlled by shell          24917 of part         4

 time...........................   4.29953E-04
 time step......................   2.55925E-06
 kinetic energy.................   2.70649E+01
 internal energy................   2.08189E+03
 spring and damper energy.......   1.00000E-20
 hourglass energy ..............   5.28629E-02
 system damping energy..........   0.00000E+00
 sliding interface energy.......   0.00000E+00
 external work..................  -1.68822E+02
 eroded kinetic energy..........   0.00000E+00
 eroded internal energy.........   0.00000E+00
 eroded hourglass energy........   0.00000E+00
 total energy...................   2.10900E+03
 total energy / initial energy..   1.12569E+00
 energy ratio w/o eroded energy.   1.12569E+00
 global x velocity..............   1.03565E-12
 global y velocity..............   7.30368E-05
 global z velocity..............  -4.53240E-09
 time per zone cycle.(nanosec)..             0


 dt of cycle     172 is controlled by shell          24917 of part         4

 time...........................   4.37631E-04
 time step......................   2.55925E-06
 kinetic energy.................   2.76614E+01
 internal energy................   2.08098E+03
 spring and damper energy.......   1.00000E-20
 hourglass energy ..............   5.32077E-02
 system damping energy..........   0.00000E+00
 sliding interface energy.......   0.00000E+00
 external work..................  -1.73625E+02
 eroded kinetic energy..........   0.00000E+00
 eroded internal energy.........   0.00000E+00
 eroded hourglass energy........   0.00000E+00
 total energy...................   2.10869E+03
 total energy / initial energy..   1.12841E+00
 energy ratio w/o eroded energy.   1.12841E+00
 global x velocity..............   1.11696E-12
 global y velocity..............   7.42476E-05
 global z velocity..............  -4.59313E-09
 time per zone cycle.(nanosec)..             0


 dt of cycle     176 is controlled by shell          24917 of part         4

 time...........................   4.47868E-04
 time step......................   2.55925E-06
 kinetic energy.................   2.84582E+01
 internal energy................   2.07986E+03
 spring and damper energy.......   1.00000E-20
 hourglass energy ..............   5.36562E-02
 system damping energy..........   0.00000E+00
 sliding interface energy.......   0.00000E+00
 external work..................  -1.80045E+02
 eroded kinetic energy..........   0.00000E+00
 eroded internal energy.........   0.00000E+00
 eroded hourglass energy........   0.00000E+00
 total energy...................   2.10837E+03
 total energy / initial energy..   1.13213E+00
 energy ratio w/o eroded energy.   1.13213E+00
 global x velocity..............   1.24751E-12
 global y velocity..............   7.58600E-05
 global z velocity..............  -4.66294E-09
 time per zone cycle.(nanosec)..             0


 dt of cycle     180 is controlled by shell          24917 of part         4

 time...........................   4.58105E-04
 time step......................   2.55925E-06
 kinetic energy.................   2.92569E+01
 internal energy................   2.07886E+03
 spring and damper energy.......   1.00000E-20
 hourglass energy ..............   5.40919E-02
 system damping energy..........   0.00000E+00
 sliding interface energy.......   0.00000E+00
 external work..................  -1.86478E+02
 eroded kinetic energy..........   0.00000E+00
 eroded internal energy.........   0.00000E+00
 eroded hourglass energy........   0.00000E+00
 total energy...................   2.10817E+03
 total energy / initial energy..   1.13595E+00
 energy ratio w/o eroded energy.   1.13595E+00
 global x velocity..............   1.40652E-12
 global y velocity..............   7.74705E-05
 global z velocity..............  -4.72056E-09
 time per zone cycle.(nanosec)..             0


 dt of cycle     184 is controlled by shell          24917 of part         4

 time...........................   4.68342E-04
 time step......................   2.55925E-06
 kinetic energy.................   3.00580E+01
 internal energy................   2.07799E+03
 spring and damper energy.......   1.00000E-20
 hourglass energy ..............   5.45153E-02
 system damping energy..........   0.00000E+00
 sliding interface energy.......   0.00000E+00
 external work..................  -1.92920E+02
 eroded kinetic energy..........   0.00000E+00
 eroded internal energy.........   0.00000E+00
 eroded hourglass energy........   0.00000E+00
 total energy...................   2.10811E+03
 total energy / initial energy..   1.13987E+00
 energy ratio w/o eroded energy.   1.13987E+00
 global x velocity..............   1.59494E-12
 global y velocity..............   7.90801E-05
 global z velocity..............  -4.76649E-09
 time per zone cycle.(nanosec)..             0


 dt of cycle     188 is controlled by shell          24917 of part         4

 time...........................   4.78579E-04
 time step......................   2.55925E-06
 kinetic energy.................   3.08618E+01
 internal energy................   2.07727E+03
 spring and damper energy.......   1.00000E-20
 hourglass energy ..............   5.49268E-02
 system damping energy..........   0.00000E+00
 sliding interface energy.......   0.00000E+00
 external work..................  -1.99366E+02
 eroded kinetic energy..........   0.00000E+00
 eroded internal energy.........   0.00000E+00
 eroded hourglass energy........   0.00000E+00
 total energy...................   2.10819E+03
 total energy / initial energy..   1.14390E+00
 energy ratio w/o eroded energy.   1.14390E+00
 global x velocity..............   1.81337E-12
 global y velocity..............   8.06894E-05
 global z velocity..............  -4.80098E-09
 time per zone cycle.(nanosec)..             0


 dt of cycle     192 is controlled by shell          24917 of part         4

 time...........................   4.88816E-04
 time step......................   2.55925E-06
 kinetic energy.................   3.16685E+01
 internal energy................   2.07669E+03
 spring and damper energy.......   1.00000E-20
 hourglass energy ..............   5.53270E-02
 system damping energy..........   0.00000E+00
 sliding interface energy.......   0.00000E+00
 external work..................  -2.05811E+02
 eroded kinetic energy..........   0.00000E+00
 eroded internal energy.........   0.00000E+00
 eroded hourglass energy........   0.00000E+00
 total energy...................   2.10841E+03
 total energy / initial energy..   1.14804E+00
 energy ratio w/o eroded energy.   1.14804E+00
 global x velocity..............   2.06464E-12
 global y velocity..............   8.22990E-05
 global z velocity..............  -4.82384E-09
 time per zone cycle.(nanosec)..             0


 dt of cycle     196 is controlled by shell          24917 of part         4

 time...........................   4.99053E-04
 time step......................   2.55925E-06
 kinetic energy.................   3.24778E+01
 internal energy................   2.07626E+03
 spring and damper energy.......   1.00000E-20
 hourglass energy ..............   5.57171E-02
 system damping energy..........   0.00000E+00
 sliding interface energy.......   0.00000E+00
 external work..................  -2.12252E+02
 eroded kinetic energy..........   0.00000E+00
 eroded internal energy.........   0.00000E+00
 eroded hourglass energy........   0.00000E+00
 total energy...................   2.10880E+03
 total energy / initial energy..   1.15229E+00
 energy ratio w/o eroded energy.   1.15229E+00
 global x velocity..............   2.35263E-12
 global y velocity..............   8.39089E-05
 global z velocity..............  -4.83506E-09
 time per zone cycle.(nanosec)..             0


 dt of cycle     200 is controlled by shell          24917 of part         4

 time...........................   5.09290E-04
 time step......................   2.55925E-06
 kinetic energy.................   3.32894E+01
 internal energy................   2.07598E+03
 spring and damper energy.......   1.00000E-20
 hourglass energy ..............   5.60981E-02
 system damping energy..........   0.00000E+00
 sliding interface energy.......   0.00000E+00
 external work..................  -2.18689E+02
 eroded kinetic energy..........   0.00000E+00
 eroded internal energy.........   0.00000E+00
 eroded hourglass energy........   0.00000E+00
 total energy...................   2.10933E+03
 total energy / initial energy..   1.15665E+00
 energy ratio w/o eroded energy.   1.15665E+00
 global x velocity..............   2.68128E-12
 global y velocity..............   8.55186E-05
 global z velocity..............  -4.83493E-09
 time per zone cycle.(nanosec)..             0


 dt of cycle     204 is controlled by shell          24917 of part         4

 time...........................   5.19527E-04
 time step......................   2.55925E-06
 kinetic energy.................   3.41026E+01
 internal energy................   2.07584E+03
 spring and damper energy.......   1.00000E-20
 hourglass energy ..............   5.64713E-02
 system damping energy..........   0.00000E+00
 sliding interface energy.......   0.00000E+00
 external work..................  -2.25122E+02
 eroded kinetic energy..........   0.00000E+00
 eroded internal energy.........   0.00000E+00
 eroded hourglass energy........   0.00000E+00
 total energy...................   2.11000E+03
 total energy / initial energy..   1.16111E+00
 energy ratio w/o eroded energy.   1.16111E+00
 global x velocity..............   3.05213E-12
 global y velocity..............   8.71278E-05
 global z velocity..............  -4.82329E-09
 time per zone cycle.(nanosec)..             0


 dt of cycle     208 is controlled by shell          24917 of part         4

 time...........................   5.29764E-04
 time step......................   2.55925E-06
 kinetic energy.................   3.49168E+01
 internal energy................   2.07583E+03
 spring and damper energy.......   1.00000E-20
 hourglass energy ..............   5.68373E-02
 system damping energy..........   0.00000E+00
 sliding interface energy.......   0.00000E+00
 external work..................  -2.31551E+02
 eroded kinetic energy..........   0.00000E+00
 eroded internal energy.........   0.00000E+00
 eroded hourglass energy........   0.00000E+00
 total energy...................   2.11081E+03
 total energy / initial energy..   1.16568E+00
 energy ratio w/o eroded energy.   1.16568E+00
 global x velocity..............   3.46297E-12
 global y velocity..............   8.87356E-05
 global z velocity..............  -4.80032E-09
 time per zone cycle.(nanosec)..             0


 dt of cycle     211 is controlled by shell          24917 of part         4

 time...........................   5.37442E-04
 time step......................   2.55925E-06
 kinetic energy.................   3.55278E+01
 internal energy................   2.07590E+03
 spring and damper energy.......   1.00000E-20
 hourglass energy ..............   5.71076E-02
 system damping energy..........   0.00000E+00
 sliding interface energy.......   0.00000E+00
 external work..................  -2.36371E+02
 eroded kinetic energy..........   0.00000E+00
 eroded internal energy.........   0.00000E+00
 eroded hourglass energy........   0.00000E+00
 total energy...................   2.11149E+03
 total energy / initial energy..   1.16917E+00
 energy ratio w/o eroded energy.   1.16917E+00
 global x velocity..............   3.79364E-12
 global y velocity..............   8.99404E-05
 global z velocity..............  -4.77599E-09
 time per zone cycle.(nanosec)..             0


 dt of cycle     215 is controlled by shell          24917 of part         4

 time...........................   5.47678E-04
 time step......................   2.55925E-06
 kinetic energy.................   3.63426E+01
 internal energy................   2.07610E+03
 spring and damper energy.......   1.00000E-20
 hourglass energy ..............   5.74627E-02
 system damping energy..........   0.00000E+00
 sliding interface energy.......   0.00000E+00
 external work..................  -2.42798E+02
 eroded kinetic energy..........   0.00000E+00
 eroded internal energy.........   0.00000E+00
 eroded hourglass energy........   0.00000E+00
 total energy...................   2.11250E+03
 total energy / initial energy..   1.17391E+00
 energy ratio w/o eroded energy.   1.17391E+00
 global x velocity..............   4.25726E-12
 global y velocity..............   9.15448E-05
 global z velocity..............  -4.73455E-09
 time per zone cycle.(nanosec)..             0


 dt of cycle     219 is controlled by shell          24917 of part         4

 time...........................   5.57915E-04
 time step......................   2.55925E-06
 kinetic energy.................   3.71573E+01
 internal energy................   2.07640E+03
 spring and damper energy.......   1.00000E-20
 hourglass energy ..............   5.78121E-02
 system damping energy..........   0.00000E+00
 sliding interface energy.......   0.00000E+00
 external work..................  -2.49224E+02
 eroded kinetic energy..........   0.00000E+00
 eroded internal energy.........   0.00000E+00
 eroded hourglass energy........   0.00000E+00
 total energy...................   2.11362E+03
 total energy / initial energy..   1.17874E+00
 energy ratio w/o eroded energy.   1.17874E+00
 global x velocity..............   4.73742E-12
 global y velocity..............   9.31469E-05
 global z velocity..............  -4.68352E-09
 time per zone cycle.(nanosec)..             0


 dt of cycle     223 is controlled by shell          24917 of part         4

 time...........................   5.68152E-04
 time step......................   2.55925E-06
 kinetic energy.................   3.79716E+01
 internal energy................   2.07680E+03
 spring and damper energy.......   1.00000E-20
 hourglass energy ..............   5.81561E-02
 system damping energy..........   0.00000E+00
 sliding interface energy.......   0.00000E+00
 external work..................  -2.55653E+02
 eroded kinetic energy..........   0.00000E+00
 eroded internal energy.........   0.00000E+00
 eroded hourglass energy........   0.00000E+00
 total energy...................   2.11483E+03
 total energy / initial energy..   1.18365E+00
 energy ratio w/o eroded energy.   1.18365E+00
 global x velocity..............   5.22517E-12
 global y velocity..............   9.47466E-05
 global z velocity..............  -4.62318E-09
 time per zone cycle.(nanosec)..             0


 dt of cycle     227 is controlled by shell          24917 of part         4

 time...........................   5.78389E-04
 time step......................   2.55925E-06
 kinetic energy.................   3.87854E+01
 internal energy................   2.07726E+03
 spring and damper energy.......   1.00000E-20
 hourglass energy ..............   5.84949E-02
 system damping energy..........   0.00000E+00
 sliding interface energy.......   1.01957E-04
 external work..................  -2.62090E+02
 eroded kinetic energy..........   0.00000E+00
 eroded internal energy.........   0.00000E+00
 eroded hourglass energy........   0.00000E+00
 total energy...................   2.11611E+03
 total energy / initial energy..   1.18865E+00
 energy ratio w/o eroded energy.   1.18865E+00
 global x velocity..............   5.51558E-12
 global y velocity..............   9.63439E-05
 global z velocity..............  -4.55203E-09
 time per zone cycle.(nanosec)..             0


 dt of cycle     231 is controlled by shell          24917 of part         4

 time...........................   5.88626E-04
 time step......................   2.55925E-06
 kinetic energy.................   3.95981E+01
 internal energy................   2.07776E+03
 spring and damper energy.......   1.00000E-20
 hourglass energy ..............   5.88291E-02
 system damping energy..........   0.00000E+00
 sliding interface energy.......   7.21960E-04
 external work..................  -2.68545E+02
 eroded kinetic energy..........   0.00000E+00
 eroded internal energy.........   0.00000E+00
 eroded hourglass energy........   0.00000E+00
 total energy...................   2.11741E+03
 total energy / initial energy..   1.19372E+00
 energy ratio w/o eroded energy.   1.19372E+00
 global x velocity..............   4.96035E-12
 global y velocity..............   9.79385E-05
 global z velocity..............  -4.45252E-09
 time per zone cycle.(nanosec)..             0


 dt of cycle     235 is controlled by shell          24917 of part         4

 time...........................   5.98863E-04
 time step......................   2.55925E-06
 kinetic energy.................   4.04093E+01
 internal energy................   2.07821E+03
 spring and damper energy.......   1.00000E-20
 hourglass energy ..............   5.91615E-02
 system damping energy..........   0.00000E+00
 sliding interface energy.......   2.39979E-03
 external work..................  -2.75036E+02
 eroded kinetic energy..........   0.00000E+00
 eroded internal energy.........   0.00000E+00
 eroded hourglass energy........   0.00000E+00
 total energy...................   2.11868E+03
 total energy / initial energy..   1.19882E+00
 energy ratio w/o eroded energy.   1.19882E+00
 global x velocity..............   1.48267E-12
 global y velocity..............   9.95302E-05
 global z velocity..............  -4.29209E-09
 time per zone cycle.(nanosec)..             0


 dt of cycle     239 is controlled by shell          24917 of part         4

 time...........................   6.09100E-04
 time step......................   2.55925E-06
 kinetic energy.................   4.12185E+01
 internal energy................   2.07854E+03
 spring and damper energy.......   1.00000E-20
 hourglass energy ..............   5.95006E-02
 system damping energy..........   0.00000E+00
 sliding interface energy.......   5.29947E-03
 external work..................  -2.81588E+02
 eroded kinetic energy..........   0.00000E+00
 eroded internal energy.........   0.00000E+00
 eroded hourglass energy........   0.00000E+00
 total energy...................   2.11982E+03
 total energy / initial energy..   1.20392E+00
 energy ratio w/o eroded energy.   1.20392E+00
 global x velocity..............  -2.80483E-11
 global y velocity..............   1.01118E-04
 global z velocity..............  -4.02112E-09
 time per zone cycle.(nanosec)..             0


 dt of cycle     243 is controlled by shell          24917 of part         4

 time...........................   6.19337E-04
 time step......................   2.55924E-06
 kinetic energy.................   4.20246E+01
 internal energy................   2.07863E+03
 spring and damper energy.......   1.00000E-20
 hourglass energy ..............   5.98675E-02
 system damping energy..........   0.00000E+00
 sliding interface energy.......   1.31940E-02
 external work..................  -2.88227E+02
 eroded kinetic energy..........   0.00000E+00
 eroded internal energy.........   0.00000E+00
 eroded hourglass energy........   0.00000E+00
 total energy...................   2.12073E+03
 total energy / initial energy..   1.20900E+00
 energy ratio w/o eroded energy.   1.20900E+00
 global x velocity..............  -9.31037E-11
 global y velocity..............   1.02698E-04
 global z velocity..............  -3.58455E-09
 time per zone cycle.(nanosec)..             0


 dt of cycle     247 is controlled by shell          24917 of part         4

 time...........................   6.29574E-04
 time step......................   2.55924E-06
 kinetic energy.................   4.28032E+01
 internal energy................   2.07843E+03
 spring and damper energy.......   1.00000E-20
 hourglass energy ..............   6.03028E-02
 system damping energy..........   0.00000E+00
 sliding interface energy.......   4.35865E-02
 external work..................  -2.94971E+02
 eroded kinetic energy..........   0.00000E+00
 eroded internal energy.........   0.00000E+00
 eroded hourglass energy........   0.00000E+00
 total energy...................   2.12134E+03
 total energy / initial energy..   1.21401E+00
 energy ratio w/o eroded energy.   1.21401E+00
 global x velocity..............  -1.32077E-10
 global y velocity..............   1.04270E-04
 global z velocity..............  -3.00494E-09
 time per zone cycle.(nanosec)..             0


 dt of cycle     251 is controlled by shell          24917 of part         4

 time...........................   6.39811E-04
 time step......................   2.55923E-06
 kinetic energy.................   4.35186E+01
 internal energy................   2.07796E+03
 spring and damper energy.......   1.00000E-20
 hourglass energy ..............   6.09879E-02
 system damping energy..........   0.00000E+00
 sliding interface energy.......   1.33459E-01
 external work..................  -3.01812E+02
 eroded kinetic energy..........   0.00000E+00
 eroded internal energy.........   0.00000E+00
 eroded hourglass energy........   0.00000E+00
 total energy...................   2.12167E+03
 total energy / initial energy..   1.21898E+00
 energy ratio w/o eroded energy.   1.21898E+00
 global x velocity..............  -4.62934E-11
 global y velocity..............   1.05828E-04
 global z velocity..............  -2.49623E-09
 time per zone cycle.(nanosec)..             0


 dt of cycle     254 is controlled by shell          24917 of part         4

 time...........................   6.47489E-04
 time step......................   2.55922E-06
 kinetic energy.................   4.39827E+01
 internal energy................   2.07752E+03
 spring and damper energy.......   1.00000E-20
 hourglass energy ..............   6.24766E-02
 system damping energy..........   0.00000E+00
 sliding interface energy.......   2.44817E-01
 external work..................  -3.06988E+02
 eroded kinetic energy..........   0.00000E+00
 eroded internal energy.........   0.00000E+00
 eroded hourglass energy........   0.00000E+00
 total energy...................   2.12181E+03
 total energy / initial energy..   1.22269E+00
 energy ratio w/o eroded energy.   1.22269E+00
 global x velocity..............   1.07398E-10
 global y velocity..............   1.06982E-04
 global z velocity..............  -2.33698E-09
 time per zone cycle.(nanosec)..             0


 dt of cycle     258 is controlled by shell          24917 of part         4

 time...........................   6.57726E-04
 time step......................   2.55921E-06
 kinetic energy.................   4.44975E+01
 internal energy................   2.07700E+03
 spring and damper energy.......   1.00000E-20
 hourglass energy ..............   6.72839E-02
 system damping energy..........   0.00000E+00
 sliding interface energy.......   4.19669E-01
 external work..................  -3.13901E+02
 eroded kinetic energy..........   0.00000E+00
 eroded internal energy.........   0.00000E+00
 eroded hourglass energy........   0.00000E+00
 total energy...................   2.12198E+03
 total energy / initial energy..   1.22768E+00
 energy ratio w/o eroded energy.   1.22768E+00
 global x velocity..............   3.14112E-10
 global y velocity..............   1.08491E-04
 global z velocity..............  -2.25920E-09
 time per zone cycle.(nanosec)..             0


 dt of cycle     262 is controlled by shell          24917 of part         4

 time...........................   6.67963E-04
 time step......................   2.55921E-06
 kinetic energy.................   4.49221E+01
 internal energy................   2.07682E+03
 spring and damper energy.......   1.00000E-20
 hourglass energy ..............   7.41840E-02
 system damping energy..........   0.00000E+00
 sliding interface energy.......   6.17003E-01
 external work..................  -3.20760E+02
 eroded kinetic energy..........   0.00000E+00
 eroded internal energy.........   0.00000E+00
 eroded hourglass energy........   0.00000E+00
 total energy...................   2.12243E+03
 total energy / initial energy..   1.23283E+00
 energy ratio w/o eroded energy.   1.23283E+00
 global x velocity..............   5.87064E-10
 global y velocity..............   1.09961E-04
 global z velocity..............  -4.40920E-10
 time per zone cycle.(nanosec)..             0


 dt of cycle     266 is controlled by shell          24917 of part         4

 time...........................   6.78200E-04
 time step......................   2.55923E-06
 kinetic energy.................   4.53510E+01
 internal energy................   2.07717E+03
 spring and damper energy.......   1.00000E-20
 hourglass energy ..............   8.07454E-02
 system damping energy..........   0.00000E+00
 sliding interface energy.......   8.58358E-01
 external work..................  -3.27489E+02
 eroded kinetic energy..........   0.00000E+00
 eroded internal energy.........   0.00000E+00
 eroded hourglass energy........   0.00000E+00
 total energy...................   2.12346E+03
 total energy / initial energy..   1.23827E+00
 energy ratio w/o eroded energy.   1.23827E+00
 global x velocity..............   1.09344E-09
 global y velocity..............   1.11382E-04
 global z velocity..............   3.63913E-09
 time per zone cycle.(nanosec)..             0


 dt of cycle     270 is controlled by shell          24917 of part         4

 time...........................   6.88436E-04
 time step......................   2.55923E-06
 kinetic energy.................   4.57859E+01
 internal energy................   2.07825E+03
 spring and damper energy.......   1.00000E-20
 hourglass energy ..............   8.76699E-02
 system damping energy..........   0.00000E+00
 sliding interface energy.......   1.12078E+00
 external work..................  -3.34026E+02
 eroded kinetic energy..........   0.00000E+00
 eroded internal energy.........   0.00000E+00
 eroded hourglass energy........   0.00000E+00
 total energy...................   2.12524E+03
 total energy / initial energy..   1.24405E+00
 energy ratio w/o eroded energy.   1.24405E+00
 global x velocity..............   1.71956E-09
 global y velocity..............   1.12765E-04
 global z velocity..............   8.38859E-09
 time per zone cycle.(nanosec)..             0


 dt of cycle     274 is controlled by shell          24917 of part         4

 time...........................   6.98673E-04
 time step......................   2.55923E-06
 kinetic energy.................   4.62575E+01
 internal energy................   2.08013E+03
 spring and damper energy.......   1.00000E-20
 hourglass energy ..............   9.52798E-02
 system damping energy..........   0.00000E+00
 sliding interface energy.......   1.36430E+00
 external work..................  -3.40339E+02
 eroded kinetic energy..........   0.00000E+00
 eroded internal energy.........   0.00000E+00
 eroded hourglass energy........   0.00000E+00
 total energy...................   2.12785E+03
 total energy / initial energy..   1.25020E+00
 energy ratio w/o eroded energy.   1.25020E+00
 global x velocity..............   1.32596E-09
 global y velocity..............   1.14133E-04
 global z velocity..............   1.34268E-08
 time per zone cycle.(nanosec)..             0


 dt of cycle     278 is controlled by shell          24917 of part         4

 time...........................   7.08910E-04
 time step......................   2.55896E-06
 kinetic energy.................   4.67856E+01
 internal energy................   2.08280E+03
 spring and damper energy.......   1.00000E-20
 hourglass energy ..............   1.03650E-01
 system damping energy..........   0.00000E+00
 sliding interface energy.......   1.57296E+00
 external work..................  -3.46430E+02
 eroded kinetic energy..........   0.00000E+00
 eroded internal energy.........   0.00000E+00
 eroded hourglass energy........   0.00000E+00
 total energy...................   2.13126E+03
 total energy / initial energy..   1.25670E+00
 energy ratio w/o eroded energy.   1.25670E+00
 global x velocity..............  -5.24412E-09
 global y velocity..............   1.15491E-04
 global z velocity..............   1.94404E-08
 time per zone cycle.(nanosec)..             0


 dt of cycle     282 is controlled by shell          24917 of part         4

 time...........................   7.19145E-04
 time step......................   2.55815E-06
 kinetic energy.................   4.73469E+01
 internal energy................   2.08611E+03
 spring and damper energy.......   1.00000E-20
 hourglass energy ..............   1.12990E-01
 system damping energy..........   0.00000E+00
 sliding interface energy.......   1.74223E+00
 external work..................  -3.52340E+02
 eroded kinetic energy..........   0.00000E+00
 eroded internal energy.........   0.00000E+00
 eroded hourglass energy........   0.00000E+00
 total energy...................   2.13531E+03
 total energy / initial energy..   1.26349E+00
 energy ratio w/o eroded energy.   1.26349E+00
 global x velocity..............  -1.91844E-08
 global y velocity..............   1.16825E-04
 global z velocity..............   2.61302E-08
 time per zone cycle.(nanosec)..             0


 dt of cycle     286 is controlled by shell          24917 of part         4

 time...........................   7.29376E-04
 time step......................   2.55713E-06
 kinetic energy.................   4.79173E+01
 internal energy................   2.08983E+03
 spring and damper energy.......   1.00000E-20
 hourglass energy ..............   1.23524E-01
 system damping energy..........   0.00000E+00
 sliding interface energy.......   1.88729E+00
 external work..................  -3.58143E+02
 eroded kinetic energy..........   0.00000E+00
 eroded internal energy.........   0.00000E+00
 eroded hourglass energy........   0.00000E+00
 total energy...................   2.13976E+03
 total energy / initial energy..   1.27049E+00
 energy ratio w/o eroded energy.   1.27049E+00
 global x velocity..............  -3.38999E-08
 global y velocity..............   1.18108E-04
 global z velocity..............   3.11175E-08
 time per zone cycle.(nanosec)..             0


 dt of cycle     290 is controlled by shell          24917 of part         4

 time...........................   7.39603E-04
 time step......................   2.55584E-06
 kinetic energy.................   4.84729E+01
 internal energy................   2.09366E+03
 spring and damper energy.......   1.00000E-20
 hourglass energy ..............   1.34957E-01
 system damping energy..........   0.00000E+00
 sliding interface energy.......   2.04105E+00
 external work..................  -3.63926E+02
 eroded kinetic energy..........   0.00000E+00
 eroded internal energy.........   0.00000E+00
 eroded hourglass energy........   0.00000E+00
 total energy...................   2.14431E+03
 total energy / initial energy..   1.27758E+00
 energy ratio w/o eroded energy.   1.27758E+00
 global x velocity..............  -4.05476E-08
 global y velocity..............   1.19328E-04
 global z velocity..............   3.51791E-08
 time per zone cycle.(nanosec)..             0


 dt of cycle     294 is controlled by shell          24917 of part         4

 time...........................   7.49824E-04
 time step......................   2.55466E-06
 kinetic energy.................   4.90260E+01
 internal energy................   2.09735E+03
 spring and damper energy.......   1.00000E-20
 hourglass energy ..............   1.46860E-01
 system damping energy..........   0.00000E+00
 sliding interface energy.......   2.22413E+00
 external work..................  -3.69764E+02
 eroded kinetic energy..........   0.00000E+00
 eroded internal energy.........   0.00000E+00
 eroded hourglass energy........   0.00000E+00
 total energy...................   2.14874E+03
 total energy / initial energy..   1.28469E+00
 energy ratio w/o eroded energy.   1.28469E+00
 global x velocity..............  -3.86598E-08
 global y velocity..............   1.20497E-04
 global z velocity..............   4.09517E-08
 time per zone cycle.(nanosec)..             0


 dt of cycle     297 is controlled by shell          24917 of part         4

 time...........................   7.57488E-04
 time step......................   2.55471E-06
 kinetic energy.................   4.94354E+01
 internal energy................   2.09990E+03
 spring and damper energy.......   1.00000E-20
 hourglass energy ..............   1.55869E-01
 system damping energy..........   0.00000E+00
 sliding interface energy.......   2.39688E+00
 external work..................  -3.74212E+02
 eroded kinetic energy..........   0.00000E+00
 eroded internal energy.........   0.00000E+00
 eroded hourglass energy........   0.00000E+00
 total energy...................   2.15189E+03
 total energy / initial energy..   1.29000E+00
 energy ratio w/o eroded energy.   1.29000E+00
 global x velocity..............  -3.62682E-08
 global y velocity..............   1.21359E-04
 global z velocity..............   4.61789E-08
 time per zone cycle.(nanosec)..             0


 dt of cycle     301 is controlled by shell          24917 of part         4

 time...........................   7.67707E-04
 time step......................   2.55518E-06
 kinetic energy.................   4.99588E+01
 internal energy................   2.10293E+03
 spring and damper energy.......   1.00000E-20
 hourglass energy ..............   1.68070E-01
 system damping energy..........   0.00000E+00
 sliding interface energy.......   2.62856E+00
 external work..................  -3.80266E+02
 eroded kinetic energy..........   0.00000E+00
 eroded internal energy.........   0.00000E+00
 eroded hourglass energy........   0.00000E+00
 total energy...................   2.15569E+03
 total energy / initial energy..   1.29698E+00
 energy ratio w/o eroded energy.   1.29698E+00
 global x velocity..............  -3.76555E-08
 global y velocity..............   1.22509E-04
 global z velocity..............   5.24482E-08
 time per zone cycle.(nanosec)..             0


 dt of cycle     305 is controlled by shell          24917 of part         4

 time...........................   7.77928E-04
 time step......................   2.55502E-06
 kinetic energy.................   5.04679E+01
 internal energy................   2.10543E+03
 spring and damper energy.......   1.00000E-20
 hourglass energy ..............   1.80082E-01
 system damping energy..........   0.00000E+00
 sliding interface energy.......   2.85007E+00
 external work..................  -3.86488E+02
 eroded kinetic energy..........   0.00000E+00
 eroded internal energy.........   0.00000E+00
 eroded hourglass energy........   0.00000E+00
 total energy...................   2.15893E+03
 total energy / initial energy..   1.30381E+00
 energy ratio w/o eroded energy.   1.30381E+00
 global x velocity..............  -4.29045E-08
 global y velocity..............   1.23660E-04
 global z velocity..............   5.42266E-08
 time per zone cycle.(nanosec)..             0


 dt of cycle     309 is controlled by shell          24917 of part         4

 time...........................   7.88147E-04
 time step......................   2.55431E-06
 kinetic energy.................   5.09708E+01
 internal energy................   2.10731E+03
 spring and damper energy.......   1.00000E-20
 hourglass energy ..............   1.91711E-01
 system damping energy..........   0.00000E+00
 sliding interface energy.......   3.08158E+00
 external work..................  -3.92897E+02
 eroded kinetic energy..........   0.00000E+00
 eroded internal energy.........   0.00000E+00
 eroded hourglass energy........   0.00000E+00
 total energy...................   2.16155E+03
 total energy / initial energy..   1.31047E+00
 energy ratio w/o eroded energy.   1.31047E+00
 global x velocity..............  -4.47786E-08
 global y velocity..............   1.24786E-04
 global z velocity..............   5.30177E-08
 time per zone cycle.(nanosec)..             0


 dt of cycle     313 is controlled by shell          24917 of part         4

 time...........................   7.98362E-04
 time step......................   2.55283E-06
 kinetic energy.................   5.14833E+01
 internal energy................   2.10852E+03
 spring and damper energy.......   1.00000E-20
 hourglass energy ..............   2.03138E-01
 system damping energy..........   0.00000E+00
 sliding interface energy.......   3.32498E+00
 external work..................  -3.99501E+02
 eroded kinetic energy..........   0.00000E+00
 eroded internal energy.........   0.00000E+00
 eroded hourglass energy........   0.00000E+00
 total energy...................   2.16353E+03
 total energy / initial energy..   1.31694E+00
 energy ratio w/o eroded energy.   1.31694E+00
 global x velocity..............  -3.90099E-08
 global y velocity..............   1.25863E-04
 global z velocity..............   5.94378E-08
 time per zone cycle.(nanosec)..             0


 dt of cycle     317 is controlled by shell          24917 of part         4

 time...........................   8.08573E-04
 time step......................   2.55271E-06
 kinetic energy.................   5.20050E+01
 internal energy................   2.10905E+03
 spring and damper energy.......   1.00000E-20
 hourglass energy ..............   2.14616E-01
 system damping energy..........   0.00000E+00
 sliding interface energy.......   3.64262E+00
 external work..................  -4.06300E+02
 eroded kinetic energy..........   0.00000E+00
 eroded internal energy.........   0.00000E+00
 eroded hourglass energy........   0.00000E+00
 total energy...................   2.16491E+03
 total energy / initial energy..   1.32326E+00
 energy ratio w/o eroded energy.   1.32326E+00
 global x velocity..............  -3.07040E-08
 global y velocity..............   1.26900E-04
 global z velocity..............   8.34056E-08
 time per zone cycle.(nanosec)..             0


[...]
 external work..................  -1.17398E+04
 eroded kinetic energy..........   0.00000E+00
 eroded internal energy.........   0.00000E+00
 eroded hourglass energy........   0.00000E+00
 total energy...................   2.24045E+03
 total energy / initial energy..   1.00000E+00
 energy ratio w/o eroded energy.   1.00000E+00
 global x velocity..............   1.16291E-05
 global y velocity..............   2.01213E-04
 global z velocity..............  -9.26065E-06
 time per zone cycle.(nanosec)..             0


 dt of cycle    5809 is controlled by shell          24917 of part         4

 time...........................   1.48093E-02
 time step......................   2.55158E-06
 kinetic energy.................   8.50594E+01
 internal energy................   2.08582E+03
 spring and damper energy.......   1.00000E-20
 hourglass energy ..............   1.73770E+01
 system damping energy..........   0.00000E+00
 sliding interface energy.......   5.21315E+01
 external work..................  -1.17496E+04
 eroded kinetic energy..........   0.00000E+00
 eroded internal energy.........   0.00000E+00
 eroded hourglass energy........   0.00000E+00
 total energy...................   2.24039E+03
 total energy / initial energy..   1.00000E+00
 energy ratio w/o eroded energy.   1.00000E+00
 global x velocity..............   1.16371E-05
 global y velocity..............   2.01245E-04
 global z velocity..............  -9.33074E-06
 time per zone cycle.(nanosec)..             0


 dt of cycle    5813 is controlled by shell          24917 of part         4

 time...........................   1.48196E-02
 time step......................   2.55158E-06
 kinetic energy.................   8.50208E+01
 internal energy................   2.08580E+03
 spring and damper energy.......   1.00000E-20
 hourglass energy ..............   1.73863E+01
 system damping energy..........   0.00000E+00
 sliding interface energy.......   5.21334E+01
 external work..................  -1.17594E+04
 eroded kinetic energy..........   0.00000E+00
 eroded internal energy.........   0.00000E+00
 eroded hourglass energy........   0.00000E+00
 total energy...................   2.24034E+03
 total energy / initial energy..   1.00000E+00
 energy ratio w/o eroded energy.   1.00000E+00
 global x velocity..............   1.16453E-05
 global y velocity..............   2.01278E-04
 global z velocity..............  -9.40216E-06
 time per zone cycle.(nanosec)..             0


 dt of cycle    5817 is controlled by shell          24917 of part         4

 time...........................   1.48298E-02
 time step......................   2.55157E-06
 kinetic energy.................   8.49828E+01
 internal energy................   2.08577E+03
 spring and damper energy.......   1.00000E-20
 hourglass energy ..............   1.73956E+01
 system damping energy..........   0.00000E+00
 sliding interface energy.......   5.21352E+01
 external work..................  -1.17691E+04
 eroded kinetic energy..........   0.00000E+00
 eroded internal energy.........   0.00000E+00
 eroded hourglass energy........   0.00000E+00
 total energy...................   2.24028E+03
 total energy / initial energy..   1.00000E+00
 energy ratio w/o eroded energy.   1.00000E+00
 global x velocity..............   1.16539E-05
 global y velocity..............   2.01311E-04
 global z velocity..............  -9.47473E-06
 time per zone cycle.(nanosec)..             0


 dt of cycle    5821 is controlled by shell          24917 of part         4

 time...........................   1.48400E-02
 time step......................   2.55155E-06
 kinetic energy.................   8.49452E+01
 internal energy................   2.08574E+03
 spring and damper energy.......   1.00000E-20
 hourglass energy ..............   1.74049E+01
 system damping energy..........   0.00000E+00
 sliding interface energy.......   5.21370E+01
 external work..................  -1.17789E+04
 eroded kinetic energy..........   0.00000E+00
 eroded internal energy.........   0.00000E+00
 eroded hourglass energy........   0.00000E+00
 total energy...................   2.24023E+03
 total energy / initial energy..   1.00000E+00
 energy ratio w/o eroded energy.   1.00000E+00
 global x velocity..............   1.16627E-05
 global y velocity..............   2.01344E-04
 global z velocity..............  -9.54838E-06
 time per zone cycle.(nanosec)..             0


 dt of cycle    5824 is controlled by shell          24917 of part         4

 time...........................   1.48476E-02
 time step......................   2.55153E-06
 kinetic energy.................   8.49174E+01
 internal energy................   2.08572E+03
 spring and damper energy.......   1.00000E-20
 hourglass energy ..............   1.74119E+01
 system damping energy..........   0.00000E+00
 sliding interface energy.......   5.21383E+01
 external work..................  -1.17863E+04
 eroded kinetic energy..........   0.00000E+00
 eroded internal energy.........   0.00000E+00
 eroded hourglass energy........   0.00000E+00
 total energy...................   2.24019E+03
 total energy / initial energy..   1.00000E+00
 energy ratio w/o eroded energy.   1.00000E+00
 global x velocity..............   1.16694E-05
 global y velocity..............   2.01370E-04
 global z velocity..............  -9.60437E-06
 time per zone cycle.(nanosec)..             0


 dt of cycle    5828 is controlled by shell          24917 of part         4

 time...........................   1.48578E-02
 time step......................   2.55151E-06
 kinetic energy.................   8.48807E+01
 internal energy................   2.08570E+03
 spring and damper energy.......   1.00000E-20
 hourglass energy ..............   1.74212E+01
 system damping energy..........   0.00000E+00
 sliding interface energy.......   5.21401E+01
 external work..................  -1.17961E+04
 eroded kinetic energy..........   0.00000E+00
 eroded internal energy.........   0.00000E+00
 eroded hourglass energy........   0.00000E+00
 total energy...................   2.24014E+03
 total energy / initial energy..   1.00000E+00
 energy ratio w/o eroded energy.   1.00000E+00
 global x velocity..............   1.16787E-05
 global y velocity..............   2.01405E-04
 global z velocity..............  -9.67998E-06
 time per zone cycle.(nanosec)..             0


 dt of cycle    5832 is controlled by shell          24917 of part         4

 time...........................   1.48680E-02
 time step......................   2.55149E-06
 kinetic energy.................   8.48445E+01
 internal energy................   2.08568E+03
 spring and damper energy.......   1.00000E-20
 hourglass energy ..............   1.74305E+01
 system damping energy..........   0.00000E+00
 sliding interface energy.......   5.21419E+01
 external work..................  -1.18058E+04
 eroded kinetic energy..........   0.00000E+00
 eroded internal energy.........   0.00000E+00
 eroded hourglass energy........   0.00000E+00
 total energy...................   2.24009E+03
 total energy / initial energy..   1.00000E+00
 energy ratio w/o eroded energy.   1.00000E+00
 global x velocity..............   1.16883E-05
 global y velocity..............   2.01440E-04
 global z velocity..............  -9.75667E-06
 time per zone cycle.(nanosec)..             0


 dt of cycle    5836 is controlled by shell          24917 of part         4

 time...........................   1.48782E-02
 time step......................   2.55147E-06
 kinetic energy.................   8.48088E+01
 internal energy................   2.08566E+03
 spring and damper energy.......   1.00000E-20
 hourglass energy ..............   1.74398E+01
 system damping energy..........   0.00000E+00
 sliding interface energy.......   5.21436E+01
 external work..................  -1.18156E+04
 eroded kinetic energy..........   0.00000E+00
 eroded internal energy.........   0.00000E+00
 eroded hourglass energy........   0.00000E+00
 total energy...................   2.24005E+03
 total energy / initial energy..   1.00000E+00
 energy ratio w/o eroded energy.   1.00000E+00
 global x velocity..............   1.16982E-05
 global y velocity..............   2.01475E-04
 global z velocity..............  -9.83443E-06
 time per zone cycle.(nanosec)..             0


 dt of cycle    5840 is controlled by shell          24917 of part         4

 time...........................   1.48884E-02
 time step......................   2.55146E-06
 kinetic energy.................   8.47737E+01
 internal energy................   2.08564E+03
 spring and damper energy.......   1.00000E-20
 hourglass energy ..............   1.74492E+01
 system damping energy..........   0.00000E+00
 sliding interface energy.......   5.21454E+01
 external work..................  -1.18254E+04
 eroded kinetic energy..........   0.00000E+00
 eroded internal energy.........   0.00000E+00
 eroded hourglass energy........   0.00000E+00
 total energy...................   2.24000E+03
 total energy / initial energy..   1.00000E+00
 energy ratio w/o eroded energy.   1.00000E+00
 global x velocity..............   1.17085E-05
 global y velocity..............   2.01510E-04
 global z velocity..............  -9.91326E-06
 time per zone cycle.(nanosec)..             0


 dt of cycle    5844 is controlled by shell          24917 of part         4

 time...........................   1.48987E-02
 time step......................   2.55144E-06
 kinetic energy.................   8.47391E+01
 internal energy................   2.08562E+03
 spring and damper energy.......   1.00000E-20
 hourglass energy ..............   1.74585E+01
 system damping energy..........   0.00000E+00
 sliding interface energy.......   5.21470E+01
 external work..................  -1.18352E+04
 eroded kinetic energy..........   0.00000E+00
 eroded internal energy.........   0.00000E+00
 eroded hourglass energy........   0.00000E+00
 total energy...................   2.23996E+03
 total energy / initial energy..   1.00000E+00
 energy ratio w/o eroded energy.   1.00000E+00
 global x velocity..............   1.17192E-05
 global y velocity..............   2.01544E-04
 global z velocity..............  -9.99310E-06
 time per zone cycle.(nanosec)..             0


 dt of cycle    5848 is controlled by shell          24917 of part         4

 time...........................   1.49089E-02
 time step......................   2.55143E-06
 kinetic energy.................   8.47050E+01
 internal energy................   2.08560E+03
 spring and damper energy.......   1.00000E-20
 hourglass energy ..............   1.74678E+01
 system damping energy..........   0.00000E+00
 sliding interface energy.......   5.21487E+01
 external work..................  -1.18450E+04
 eroded kinetic energy..........   0.00000E+00
 eroded internal energy.........   0.00000E+00
 eroded hourglass energy........   0.00000E+00
 total energy...................   2.23992E+03
 total energy / initial energy..   1.00000E+00
 energy ratio w/o eroded energy.   1.00000E+00
 global x velocity..............   1.17304E-05
 global y velocity..............   2.01578E-04
 global z velocity..............  -1.00739E-05
 time per zone cycle.(nanosec)..             0


 dt of cycle    5852 is controlled by shell          24917 of part         4

 time...........................   1.49191E-02
 time step......................   2.55141E-06
 kinetic energy.................   8.46715E+01
 internal energy................   2.08558E+03
 spring and damper energy.......   1.00000E-20
 hourglass energy ..............   1.74771E+01
 system damping energy..........   0.00000E+00
 sliding interface energy.......   5.21502E+01
 external work..................  -1.18548E+04
 eroded kinetic energy..........   0.00000E+00
 eroded internal energy.........   0.00000E+00
 eroded hourglass energy........   0.00000E+00
 total energy...................   2.23988E+03
 total energy / initial energy..   1.00000E+00
 energy ratio w/o eroded energy.   1.00000E+00
 global x velocity..............   1.17420E-05
 global y velocity..............   2.01610E-04
 global z velocity..............  -1.01556E-05
 time per zone cycle.(nanosec)..             0


 dt of cycle    5856 is controlled by shell          24917 of part         4

 time...........................   1.49293E-02
 time step......................   2.55137E-06
 kinetic energy.................   8.46385E+01
 internal energy................   2.08556E+03
 spring and damper energy.......   1.00000E-20
 hourglass energy ..............   1.74864E+01
 system damping energy..........   0.00000E+00
 sliding interface energy.......   5.21516E+01
 external work..................  -1.18646E+04
 eroded kinetic energy..........   0.00000E+00
 eroded internal energy.........   0.00000E+00
 eroded hourglass energy........   0.00000E+00
 total energy...................   2.23984E+03
 total energy / initial energy..   1.00000E+00
 energy ratio w/o eroded energy.   1.00000E+00
 global x velocity..............   1.17539E-05
 global y velocity..............   2.01642E-04
 global z velocity..............  -1.02382E-05
 time per zone cycle.(nanosec)..             0


 dt of cycle    5860 is controlled by shell          24917 of part         4

 time...........................   1.49395E-02
 time step......................   2.55133E-06
 kinetic energy.................   8.46061E+01
 internal energy................   2.08554E+03
 spring and damper energy.......   1.00000E-20
 hourglass energy ..............   1.74957E+01
 system damping energy..........   0.00000E+00
 sliding interface energy.......   5.21529E+01
 external work..................  -1.18744E+04
 eroded kinetic energy..........   0.00000E+00
 eroded internal energy.........   0.00000E+00
 eroded hourglass energy........   0.00000E+00
 total energy...................   2.23980E+03
 total energy / initial energy..   1.00000E+00
 energy ratio w/o eroded energy.   1.00000E+00
 global x velocity..............   1.17661E-05
 global y velocity..............   2.01672E-04
 global z velocity..............  -1.03214E-05
 time per zone cycle.(nanosec)..             0


 dt of cycle    5864 is controlled by shell          24917 of part         4

 time...........................   1.49497E-02
 time step......................   2.55127E-06
 kinetic energy.................   8.45743E+01
 internal energy................   2.08552E+03
 spring and damper energy.......   1.00000E-20
 hourglass energy ..............   1.75050E+01
 system damping energy..........   0.00000E+00
 sliding interface energy.......   5.21541E+01
 external work..................  -1.18842E+04
 eroded kinetic energy..........   0.00000E+00
 eroded internal energy.........   0.00000E+00
 eroded hourglass energy........   0.00000E+00
 total energy...................   2.23976E+03
 total energy / initial energy..   1.00000E+00
 energy ratio w/o eroded energy.   1.00000E+00
 global x velocity..............   1.17787E-05
 global y velocity..............   2.01700E-04
 global z velocity..............  -1.04052E-05
 time per zone cycle.(nanosec)..             0


 dt of cycle    5868 is controlled by shell          24917 of part         4

 time...........................   1.49599E-02
 time step......................   2.55120E-06
 kinetic energy.................   8.45430E+01
 internal energy................   2.08551E+03
 spring and damper energy.......   1.00000E-20
 hourglass energy ..............   1.75143E+01
 system damping energy..........   0.00000E+00
 sliding interface energy.......   5.21551E+01
 external work..................  -1.18940E+04
 eroded kinetic energy..........   0.00000E+00
 eroded internal energy.........   0.00000E+00
 eroded hourglass energy........   0.00000E+00
 total energy...................   2.23972E+03
 total energy / initial energy..   1.00000E+00
 energy ratio w/o eroded energy.   1.00000E+00
 global x velocity..............   1.17915E-05
 global y velocity..............   2.01725E-04
 global z velocity..............  -1.04893E-05
 time per zone cycle.(nanosec)..             0


 dt of cycle    5871 is controlled by shell          24917 of part         4

 time...........................   1.49675E-02
 time step......................   2.55114E-06
 kinetic energy.................   8.45198E+01
 internal energy................   2.08549E+03
 spring and damper energy.......   1.00000E-20
 hourglass energy ..............   1.75213E+01
 system damping energy..........   0.00000E+00
 sliding interface energy.......   5.21557E+01
 external work..................  -1.19014E+04
 eroded kinetic energy..........   0.00000E+00
 eroded internal energy.........   0.00000E+00
 eroded hourglass energy........   0.00000E+00
 total energy...................   2.23969E+03
 total energy / initial energy..   1.00000E+00
 energy ratio w/o eroded energy.   1.00000E+00
 global x velocity..............   1.18012E-05
 global y velocity..............   2.01743E-04
 global z velocity..............  -1.05527E-05
 time per zone cycle.(nanosec)..             0


 dt of cycle    5875 is controlled by shell          24917 of part         4

 time...........................   1.49777E-02
 time step......................   2.55106E-06
 kinetic energy.................   8.44895E+01
 internal energy................   2.08547E+03
 spring and damper energy.......   1.00000E-20
 hourglass energy ..............   1.75306E+01
 system damping energy..........   0.00000E+00
 sliding interface energy.......   5.21564E+01
 external work..................  -1.19112E+04
 eroded kinetic energy..........   0.00000E+00
 eroded internal energy.........   0.00000E+00
 eroded hourglass energy........   0.00000E+00
 total energy...................   2.23965E+03
 total energy / initial energy..   1.00000E+00
 energy ratio w/o eroded energy.   1.00000E+00
 global x velocity..............   1.18143E-05
 global y velocity..............   2.01765E-04
 global z velocity..............  -1.06374E-05
 time per zone cycle.(nanosec)..             0


 dt of cycle    5879 is controlled by shell          24917 of part         4

 time...........................   1.49879E-02
 time step......................   2.55098E-06
 kinetic energy.................   8.44596E+01
 internal energy................   2.08545E+03
 spring and damper energy.......   1.00000E-20
 hourglass energy ..............   1.75399E+01
 system damping energy..........   0.00000E+00
 sliding interface energy.......   5.21570E+01
 external work..................  -1.19210E+04
 eroded kinetic energy..........   0.00000E+00
 eroded internal energy.........   0.00000E+00
 eroded hourglass energy........   0.00000E+00
 total energy...................   2.23960E+03
 total energy / initial energy..   1.00000E+00
 energy ratio w/o eroded energy.   1.00000E+00
 global x velocity..............   1.18276E-05
 global y velocity..............   2.01786E-04
 global z velocity..............  -1.07227E-05
 time per zone cycle.(nanosec)..             0


 dt of cycle    5883 is controlled by shell          24917 of part         4

 time...........................   1.49982E-02
 time step......................   2.55092E-06
 kinetic energy.................   8.44301E+01
 internal energy................   2.08542E+03
 spring and damper energy.......   1.00000E-20
 hourglass energy ..............   1.75492E+01
 system damping energy..........   0.00000E+00
 sliding interface energy.......   5.21574E+01
 external work..................  -1.19308E+04
 eroded kinetic energy..........   0.00000E+00
 eroded internal energy.........   0.00000E+00
 eroded hourglass energy........   0.00000E+00
 total energy...................   2.23956E+03
 total energy / initial energy..   1.00000E+00
 energy ratio w/o eroded energy.   1.00000E+00
 global x velocity..............   1.18410E-05
 global y velocity..............   2.01804E-04
 global z velocity..............  -1.08085E-05
 time per zone cycle.(nanosec)..             0
