 Bolted Connection Type b                                                
                    ls-dyna smp d R13 R13.1.1_27_8731a0 date 07/28/2023


 r e s u l t a n t s   a n d   s t r e s s e s   f o r   t i m e  s t e p        1   ( at time 0.00000E+00 )


 beam/truss # = 1000000      part ID  =       100      material type=     100

 resultants      axial    shear-s    shear-t    moment-s   moment-t   torsion     pl eps
             0.000E+00  0.000E+00  0.000E+00  0.000E+00  0.000E+00  0.000E+00  0.000E+00


 integration point stresses
                       sigma 11       sigma 12       sigma 31   plastic  eps
    1              0.000000E+00   0.000000E+00   0.000000E+00   0.000000E+00
    2              0.000000E+00   0.000000E+00   0.000000E+00   0.000000E+00
    3              0.000000E+00   0.000000E+00   0.000000E+00   0.000000E+00
    4              0.000000E+00   0.000000E+00   0.000000E+00   0.000000E+00


 r e s u l t a n t s   a n d   s t r e s s e s   f o r   t i m e  s t e p       24   ( at time 4.87301E-03 )


 beam/truss # = 1000000      part ID  =       100      material type=     100

 resultants      axial    shear-s    shear-t    moment-s   moment-t   torsion     pl eps
             1.403E-01  3.930E-08 -2.238E-11 -1.388E-17 -1.388E-17  3.935E-14  0.000E+00


 integration point stresses
                       sigma 11       sigma 12       sigma 31   plastic  eps
    1              1.786899E-03   5.004326E-10  -2.849016E-13   0.000000E+00
    2              1.786899E-03   5.004326E-10  -2.851019E-13   0.000000E+00
    3              1.786899E-03   5.004328E-10  -2.851019E-13   0.000000E+00
    4              1.786899E-03   5.004328E-10  -2.849016E-13   0.000000E+00


 r e s u l t a n t s   a n d   s t r e s s e s   f o r   t i m e  s t e p       48   ( at time 9.95789E-03 )


 beam/truss # = 1000000      part ID  =       100      material type=     100

 resultants      axial    shear-s    shear-t    moment-s   moment-t   torsion     pl eps
             2.868E-01  3.621E-07 -1.122E-09 -2.776E-17 -5.551E-17  3.714E-13  0.000E+00


 integration point stresses
                       sigma 11       sigma 12       sigma 31   plastic  eps
    1              3.651489E-03   4.610534E-09  -1.428429E-11   0.000000E+00
    2              3.651489E-03   4.610534E-09  -1.428618E-11   0.000000E+00
    3              3.651489E-03   4.610536E-09  -1.428618E-11   0.000000E+00
    4              3.651489E-03   4.610536E-09  -1.428429E-11   0.000000E+00


 r e s u l t a n t s   a n d   s t r e s s e s   f o r   t i m e  s t e p       71   ( at time 1.48309E-02 )


 beam/truss # = 1000000      part ID  =       100      material type=     100

 resultants      axial    shear-s    shear-t    moment-s   moment-t   torsion     pl eps
             4.271E-01  1.755E-08  1.461E-09 -5.551E-17 -5.551E-17  2.107E-12  0.000E+00


 integration point stresses
                       sigma 11       sigma 12       sigma 31   plastic  eps
    1              5.438387E-03   2.234799E-10   1.860176E-11   0.000000E+00
    2              5.438387E-03   2.234799E-10   1.859103E-11   0.000000E+00
    3              5.438387E-03   2.234907E-10   1.859103E-11   0.000000E+00
    4              5.438387E-03   2.234907E-10   1.860176E-11   0.000000E+00


 r e s u l t a n t s   a n d   s t r e s s e s   f o r   t i m e  s t e p       95   ( at time 1.99158E-02 )


 beam/truss # = 1000000      part ID  =       100      material type=     100

 resultants      axial    shear-s    shear-t    moment-s   moment-t   torsion     pl eps
             5.736E-01 -4.975E-07  1.054E-08 -5.551E-17 -5.551E-17  6.933E-12  0.000E+00


 integration point stresses
                       sigma 11       sigma 12       sigma 31   plastic  eps
    1              7.302977E-03  -6.334005E-09   1.342462E-10   0.000000E+00
    2              7.302977E-03  -6.334005E-09   1.342109E-10   0.000000E+00
    3              7.302977E-03  -6.333970E-09   1.342109E-10   0.000000E+00
    4              7.302977E-03  -6.333970E-09   1.342462E-10   0.000000E+00


 r e s u l t a n t s   a n d   s t r e s s e s   f o r   t i m e  s t e p      118   ( at time 2.47888E-02 )


 beam/truss # = 1000000      part ID  =       100      material type=     100

 resultants      axial    shear-s    shear-t    moment-s   moment-t   torsion     pl eps
             7.139E-01 -1.405E-08  2.147E-08  0.000E+00 -5.551E-17  1.162E-11  0.000E+00


 integration point stresses
                       sigma 11       sigma 12       sigma 31   plastic  eps
    1              9.089876E-03  -1.789183E-10   2.734418E-10   0.000000E+00
    2              9.089876E-03  -1.789183E-10   2.733826E-10   0.000000E+00
    3              9.089876E-03  -1.788591E-10   2.733826E-10   0.000000E+00
    4              9.089876E-03  -1.788591E-10   2.734418E-10   0.000000E+00


 r e s u l t a n t s   a n d   s t r e s s e s   f o r   t i m e  s t e p      142   ( at time 2.98737E-02 )


 beam/truss # = 1000000      part ID  =       100      material type=     100

 resultants      axial    shear-s    shear-t    moment-s   moment-t   torsion     pl eps
             8.604E-01  3.734E-07  3.023E-08  1.110E-16 -1.110E-16  1.710E-11  0.000E+00


 integration point stresses
                       sigma 11       sigma 12       sigma 31   plastic  eps
    1              1.095447E-02   4.754065E-09   3.849023E-10   0.000000E+00
    2              1.095447E-02   4.754065E-09   3.848152E-10   0.000000E+00
    3              1.095447E-02   4.754152E-09   3.848152E-10   0.000000E+00
    4              1.095447E-02   4.754152E-09   3.849023E-10   0.000000E+00


 r e s u l t a n t s   a n d   s t r e s s e s   f o r   t i m e  s t e p      166   ( at time 3.49586E-02 )


 beam/truss # = 1000000      part ID  =       100      material type=     100

 resultants      axial    shear-s    shear-t    moment-s   moment-t   torsion     pl eps
             1.007E+00 -2.967E-09  3.109E-08 -1.110E-16 -1.110E-16  2.554E-11  0.000E+00


 integration point stresses
                       sigma 11       sigma 12       sigma 31   plastic  eps
    1              1.281906E-02  -3.784366E-11   3.958816E-10   0.000000E+00
    2              1.281906E-02  -3.784372E-11   3.957515E-10   0.000000E+00
    3              1.281906E-02  -3.771366E-11   3.957515E-10   0.000000E+00
    4              1.281906E-02  -3.771360E-11   3.958816E-10   0.000000E+00


 r e s u l t a n t s   a n d   s t r e s s e s   f o r   t i m e  s t e p      189   ( at time 3.98316E-02 )


 beam/truss # = 1000000      part ID  =       100      material type=     100

 resultants      axial    shear-s    shear-t    moment-s   moment-t   torsion     pl eps
             1.147E+00 -7.792E-08  2.424E-08  1.110E-16 -1.110E-16  3.208E-11  0.000E+00


 integration point stresses
                       sigma 11       sigma 12       sigma 31   plastic  eps
    1              1.460595E-02  -9.921984E-10   3.086866E-10   0.000000E+00
    2              1.460595E-02  -9.921986E-10   3.085232E-10   0.000000E+00
    3              1.460595E-02  -9.920351E-10   3.085232E-10   0.000000E+00
    4              1.460595E-02  -9.920350E-10   3.086866E-10   0.000000E+00


 r e s u l t a n t s   a n d   s t r e s s e s   f o r   t i m e  s t e p      213   ( at time 4.49164E-02 )


 beam/truss # = 1000000      part ID  =       100      material type=     100

 resultants      axial    shear-s    shear-t    moment-s   moment-t   torsion     pl eps
             1.294E+00  4.482E-08  1.765E-08 -1.110E-16 -2.220E-16  3.838E-11  0.000E+00


 integration point stresses
                       sigma 11       sigma 12       sigma 31   plastic  eps
    1              1.647054E-02   5.705886E-10   2.247665E-10   0.000000E+00
    2              1.647054E-02   5.705884E-10   2.245710E-10   0.000000E+00
    3              1.647054E-02   5.707839E-10   2.245710E-10   0.000000E+00
    4              1.647054E-02   5.707841E-10   2.247665E-10   0.000000E+00


 r e s u l t a n t s   a n d   s t r e s s e s   f o r   t i m e  s t e p      236   ( at time 4.97895E-02 )


 beam/truss # = 1000000      part ID  =       100      material type=     100

 resultants      axial    shear-s    shear-t    moment-s   moment-t   torsion     pl eps
             1.434E+00 -2.405E-07  2.041E-08 -1.110E-16 -2.220E-16  4.653E-11  0.000E+00


 integration point stresses
                       sigma 11       sigma 12       sigma 31   plastic  eps
    1              1.825744E-02  -3.062172E-09   2.600201E-10   0.000000E+00
    2              1.825744E-02  -3.062172E-09   2.597831E-10   0.000000E+00
    3              1.825744E-02  -3.061935E-09   2.597831E-10   0.000000E+00
    4              1.825744E-02  -3.061935E-09   2.600201E-10   0.000000E+00


 r e s u l t a n t s   a n d   s t r e s s e s   f o r   t i m e  s t e p      260   ( at time 5.48743E-02 )


 beam/truss # = 1000000      part ID  =       100      material type=     100

 resultants      axial    shear-s    shear-t    moment-s   moment-t   torsion     pl eps
             1.580E+00  3.320E-09  3.065E-08  1.110E-16 -2.220E-16  5.233E-11  0.000E+00


 integration point stresses
                       sigma 11       sigma 12       sigma 31   plastic  eps
    1              2.012203E-02   4.214281E-11   3.903215E-10   0.000000E+00
    2              2.012203E-02   4.214249E-11   3.900550E-10   0.000000E+00
    3              2.012203E-02   4.240899E-11   3.900550E-10   0.000000E+00
    4              2.012203E-02   4.240931E-11   3.903215E-10   0.000000E+00


 r e s u l t a n t s   a n d   s t r e s s e s   f o r   t i m e  s t e p      284   ( at time 5.99592E-02 )


 beam/truss # = 1000000      part ID  =       100      material type=     100

 resultants      axial    shear-s    shear-t    moment-s   moment-t   torsion     pl eps
             1.727E+00  4.641E-07  4.183E-08  2.220E-16 -2.220E-16  5.619E-11  0.000E+00


 integration point stresses
                       sigma 11       sigma 12       sigma 31   plastic  eps
    1              2.198662E-02   5.909010E-09   5.327441E-10   0.000000E+00
    2              2.198662E-02   5.909009E-09   5.324579E-10   0.000000E+00
    3              2.198662E-02   5.909295E-09   5.324579E-10   0.000000E+00
    4              2.198662E-02   5.909296E-09   5.327441E-10   0.000000E+00


 r e s u l t a n t s   a n d   s t r e s s e s   f o r   t i m e  s t e p      307   ( at time 6.48322E-02 )


 beam/truss # = 1000000      part ID  =       100      material type=     100

 resultants      axial    shear-s    shear-t    moment-s   moment-t   torsion     pl eps
             1.867E+00  4.131E-08  4.892E-08  2.220E-16 -2.220E-16  6.002E-11  0.000E+00


 integration point stresses
                       sigma 11       sigma 12       sigma 31   plastic  eps
    1              2.377352E-02   5.258474E-10   6.230188E-10   0.000000E+00
    2              2.377352E-02   5.258468E-10   6.227132E-10   0.000000E+00
    3              2.377352E-02   5.261525E-10   6.227132E-10   0.000000E+00
    4              2.377352E-02   5.261531E-10   6.230188E-10   0.000000E+00


 r e s u l t a n t s   a n d   s t r e s s e s   f o r   t i m e  s t e p      331   ( at time 6.99171E-02 )


 beam/truss # = 1000000      part ID  =       100      material type=     100

 resultants      axial    shear-s    shear-t    moment-s   moment-t   torsion     pl eps
             2.014E+00 -4.202E-07  5.039E-08 -2.220E-16 -2.220E-16  6.116E-11  0.000E+00


 integration point stresses
                       sigma 11       sigma 12       sigma 31   plastic  eps
    1              2.563811E-02  -5.349948E-09   6.417378E-10   0.000000E+00
    2              2.563811E-02  -5.349948E-09   6.414263E-10   0.000000E+00
    3              2.563811E-02  -5.349637E-09   6.414264E-10   0.000000E+00
    4              2.563811E-02  -5.349636E-09   6.417379E-10   0.000000E+00


 r e s u l t a n t s   a n d   s t r e s s e s   f o r   t i m e  s t e p      354   ( at time 7.47901E-02 )


 beam/truss # = 1000000      part ID  =       100      material type=     100

 resultants      axial    shear-s    shear-t    moment-s   moment-t   torsion     pl eps
             2.154E+00  1.557E-08  4.780E-08 -2.220E-16 -2.220E-16  6.060E-11  0.000E+00


 integration point stresses
                       sigma 11       sigma 12       sigma 31   plastic  eps
    1              2.742501E-02   1.980580E-10   6.087329E-10   0.000000E+00
    2              2.742501E-02   1.980571E-10   6.084243E-10   0.000000E+00
    3              2.742501E-02   1.983657E-10   6.084243E-10   0.000000E+00
    4              2.742501E-02   1.983666E-10   6.087329E-10   0.000000E+00


 r e s u l t a n t s   a n d   s t r e s s e s   f o r   t i m e  s t e p      378   ( at time 7.98750E-02 )


 beam/truss # = 1000000      part ID  =       100      material type=     100

 resultants      axial    shear-s    shear-t    moment-s   moment-t   torsion     pl eps
             2.300E+00  1.694E-07  4.616E-08 -2.220E-16 -2.220E-16  6.043E-11  0.000E+00


 integration point stresses
                       sigma 11       sigma 12       sigma 31   plastic  eps
    1              2.928960E-02   2.156557E-09   5.878772E-10   0.000000E+00
    2              2.928960E-02   2.156556E-09   5.875695E-10   0.000000E+00
    3              2.928960E-02   2.156864E-09   5.875695E-10   0.000000E+00
    4              2.928960E-02   2.156865E-09   5.878773E-10   0.000000E+00


 r e s u l t a n t s   a n d   s t r e s s e s   f o r   t i m e  s t e p      402   ( at time 8.49599E-02 )


 beam/truss # = 1000000      part ID  =       100      material type=     100

 resultants      axial    shear-s    shear-t    moment-s   moment-t   torsion     pl eps
             2.447E+00  5.570E-09  4.563E-08  2.220E-16 -2.220E-16  6.082E-11  0.000E+00


 integration point stresses
                       sigma 11       sigma 12       sigma 31   plastic  eps
    1              3.115419E-02   7.076343E-11   5.811424E-10   0.000000E+00
    2              3.115419E-02   7.076214E-11   5.808326E-10   0.000000E+00
    3              3.115419E-02   7.107189E-11   5.808326E-10   0.000000E+00
    4              3.115419E-02   7.107319E-11   5.811424E-10   0.000000E+00


 r e s u l t a n t s   a n d   s t r e s s e s   f o r   t i m e  s t e p      425   ( at time 8.98329E-02 )


 beam/truss # = 1000000      part ID  =       100      material type=     100

 resultants      axial    shear-s    shear-t    moment-s   moment-t   torsion     pl eps
             2.587E+00  2.000E-07  4.552E-08  0.000E+00 -2.220E-16  6.193E-11  0.000E+00


 integration point stresses
                       sigma 11       sigma 12       sigma 31   plastic  eps
    1              3.294109E-02   2.546883E-09   5.797914E-10   0.000000E+00
    2              3.294109E-02   2.546882E-09   5.794759E-10   0.000000E+00
    3              3.294109E-02   2.547197E-09   5.794760E-10   0.000000E+00
    4              3.294109E-02   2.547199E-09   5.797914E-10   0.000000E+00


 r e s u l t a n t s   a n d   s t r e s s e s   f o r   t i m e  s t e p      449   ( at time 9.49178E-02 )


 beam/truss # = 1000000      part ID  =       100      material type=     100

 resultants      axial    shear-s    shear-t    moment-s   moment-t   torsion     pl eps
             2.734E+00  8.943E-08  4.949E-08 -2.220E-16 -4.441E-16  6.420E-11  0.000E+00


 integration point stresses
                       sigma 11       sigma 12       sigma 31   plastic  eps
    1              3.480568E-02   1.138539E-09   6.302876E-10   0.000000E+00
    2              3.480568E-02   1.138537E-09   6.299606E-10   0.000000E+00
    3              3.480568E-02   1.138864E-09   6.299607E-10   0.000000E+00
    4              3.480568E-02   1.138866E-09   6.302876E-10   0.000000E+00


 r e s u l t a n t s   a n d   s t r e s s e s   f o r   t i m e  s t e p      472   ( at time 9.97908E-02 )


 beam/truss # = 1000000      part ID  =       100      material type=     100

 resultants      axial    shear-s    shear-t    moment-s   moment-t   torsion     pl eps
             2.874E+00 -4.004E-07  5.856E-08  0.000E+00 -2.220E-16  6.900E-11  0.000E+00


 integration point stresses
                       sigma 11       sigma 12       sigma 31   plastic  eps
    1              3.659258E-02  -5.098080E-09   7.457477E-10   0.000000E+00
    2              3.659258E-02  -5.098082E-09   7.453963E-10   0.000000E+00
    3              3.659258E-02  -5.097731E-09   7.453963E-10   0.000000E+00
    4              3.659258E-02  -5.097728E-09   7.457478E-10   0.000000E+00


 r e s u l t a n t s   a n d   s t r e s s e s   f o r   t i m e  s t e p      496   ( at time 1.04876E-01 )


 beam/truss # = 1000000      part ID  =       100      material type=     100

 resultants      axial    shear-s    shear-t    moment-s   moment-t   torsion     pl eps
             3.020E+00 -2.461E-08  6.722E-08  0.000E+00 -2.220E-16  7.463E-11  0.000E+00


 integration point stresses
                       sigma 11       sigma 12       sigma 31   plastic  eps
    1              3.845717E-02  -3.135239E-10   8.560316E-10   0.000000E+00
    2              3.845717E-02  -3.135264E-10   8.556515E-10   0.000000E+00
    3              3.845717E-02  -3.131463E-10   8.556516E-10   0.000000E+00
    4              3.845717E-02  -3.131438E-10   8.560317E-10   0.000000E+00


 r e s u l t a n t s   a n d   s t r e s s e s   f o r   t i m e  s t e p      520   ( at time 1.09961E-01 )


 beam/truss # = 1000000      part ID  =       100      material type=     100

 resultants      axial    shear-s    shear-t    moment-s   moment-t   torsion     pl eps
             3.167E+00  4.268E-07  7.049E-08  2.220E-16 -4.441E-16  7.975E-11  0.000E+00


 integration point stresses
                       sigma 11       sigma 12       sigma 31   plastic  eps
    1              4.032176E-02   5.434308E-09   8.976998E-10   0.000000E+00
    2              4.032176E-02   5.434305E-09   8.972936E-10   0.000000E+00
    3              4.032176E-02   5.434712E-09   8.972937E-10   0.000000E+00
    4              4.032176E-02   5.434715E-09   8.976999E-10   0.000000E+00


 r e s u l t a n t s   a n d   s t r e s s e s   f o r   t i m e  s t e p      543   ( at time 1.14834E-01 )


 beam/truss # = 1000000      part ID  =       100      material type=     100

 resultants      axial    shear-s    shear-t    moment-s   moment-t   torsion     pl eps
             3.307E+00  2.979E-08  6.688E-08  4.441E-16  0.000E+00  8.758E-11  0.000E+00


 integration point stresses
                       sigma 11       sigma 12       sigma 31   plastic  eps
    1              4.210865E-02   3.791306E-10   8.518010E-10   0.000000E+00
    2              4.210865E-02   3.791273E-10   8.513549E-10   0.000000E+00
    3              4.210865E-02   3.795733E-10   8.513551E-10   0.000000E+00
    4              4.210865E-02   3.795766E-10   8.518012E-10   0.000000E+00


 r e s u l t a n t s   a n d   s t r e s s e s   f o r   t i m e  s t e p      567   ( at time 1.19918E-01 )


 beam/truss # = 1000000      part ID  =       100      material type=     100

 resultants      axial    shear-s    shear-t    moment-s   moment-t   torsion     pl eps
             3.454E+00 -1.958E-07  5.793E-08 -4.441E-16 -4.441E-16  9.519E-11  0.000E+00


 integration point stresses
                       sigma 11       sigma 12       sigma 31   plastic  eps
    1              4.397324E-02  -2.493798E-09   7.378816E-10   0.000000E+00
    2              4.397324E-02  -2.493802E-09   7.373968E-10   0.000000E+00
    3              4.397324E-02  -2.493317E-09   7.373970E-10   0.000000E+00
    4              4.397324E-02  -2.493313E-09   7.378818E-10   0.000000E+00


 r e s u l t a n t s   a n d   s t r e s s e s   f o r   t i m e  s t e p      590   ( at time 1.24791E-01 )


 beam/truss # = 1000000      part ID  =       100      material type=     100

 resultants      axial    shear-s    shear-t    moment-s   moment-t   torsion     pl eps
             3.594E+00  1.042E-07  5.144E-08 -4.441E-16 -4.441E-16  1.008E-10  0.000E+00


 integration point stresses
                       sigma 11       sigma 12       sigma 31   plastic  eps
    1              4.576014E-02   1.325947E-09   6.552252E-10   0.000000E+00
    2              4.576014E-02   1.325943E-09   6.547118E-10   0.000000E+00
    3              4.576014E-02   1.326456E-09   6.547121E-10   0.000000E+00
    4              4.576014E-02   1.326461E-09   6.552255E-10   0.000000E+00


 r e s u l t a n t s   a n d   s t r e s s e s   f o r   t i m e  s t e p      614   ( at time 1.29876E-01 )


 beam/truss # = 1000000      part ID  =       100      material type=     100

 resultants      axial    shear-s    shear-t    moment-s   moment-t   torsion     pl eps
             3.740E+00 -6.792E-08  5.450E-08  4.441E-16 -4.441E-16  1.087E-10  0.000E+00


 integration point stresses
                       sigma 11       sigma 12       sigma 31   plastic  eps
    1              4.762473E-02  -8.650261E-10   6.941704E-10   0.000000E+00
    2              4.762473E-02  -8.650310E-10   6.936166E-10   0.000000E+00
    3              4.762473E-02  -8.644772E-10   6.936170E-10   0.000000E+00
    4              4.762473E-02  -8.644723E-10   6.941708E-10   0.000000E+00


 r e s u l t a n t s   a n d   s t r e s s e s   f o r   t i m e  s t e p      638   ( at time 1.34961E-01 )


 beam/truss # = 1000000      part ID  =       100      material type=     100

 resultants      axial    shear-s    shear-t    moment-s   moment-t   torsion     pl eps
             3.887E+00 -4.439E-08  6.320E-08 -4.441E-16 -4.441E-16  1.144E-10  0.000E+00


 integration point stresses
                       sigma 11       sigma 12       sigma 31   plastic  eps
    1              4.948932E-02  -5.655124E-10   8.049582E-10   0.000000E+00
    2              4.948932E-02  -5.655180E-10   8.043755E-10   0.000000E+00
    3              4.948932E-02  -5.649354E-10   8.043760E-10   0.000000E+00
    4              4.948932E-02  -5.649298E-10   8.049587E-10   0.000000E+00


 r e s u l t a n t s   a n d   s t r e s s e s   f o r   t i m e  s t e p      661   ( at time 1.39834E-01 )


 beam/truss # = 1000000      part ID  =       100      material type=     100

 resultants      axial    shear-s    shear-t    moment-s   moment-t   torsion     pl eps
             4.027E+00  3.737E-07  6.900E-08  0.000E+00 -4.441E-16  1.164E-10  0.000E+00


 integration point stresses
                       sigma 11       sigma 12       sigma 31   plastic  eps
    1              5.127622E-02   4.757809E-09   8.788401E-10   0.000000E+00
    2              5.127622E-02   4.757803E-09   8.782471E-10   0.000000E+00
    3              5.127622E-02   4.758396E-09   8.782477E-10   0.000000E+00
    4              5.127622E-02   4.758402E-09   8.788407E-10   0.000000E+00


 r e s u l t a n t s   a n d   s t r e s s e s   f o r   t i m e  s t e p      685   ( at time 1.44919E-01 )


 beam/truss # = 1000000      part ID  =       100      material type=     100

 resultants      axial    shear-s    shear-t    moment-s   moment-t   torsion     pl eps
             4.174E+00  7.437E-08  6.941E-08  4.441E-16 -4.441E-16  1.189E-10  0.000E+00


 integration point stresses
                       sigma 11       sigma 12       sigma 31   plastic  eps
    1              5.314081E-02   9.466401E-10   8.840537E-10   0.000000E+00
    2              5.314081E-02   9.466331E-10   8.834482E-10   0.000000E+00
    3              5.314081E-02   9.472386E-10   8.834490E-10   0.000000E+00
    4              5.314081E-02   9.472456E-10   8.840545E-10   0.000000E+00


 r e s u l t a n t s   a n d   s t r e s s e s   f o r   t i m e  s t e p      708   ( at time 1.49792E-01 )


 beam/truss # = 1000000      part ID  =       100      material type=     100

 resultants      axial    shear-s    shear-t    moment-s   moment-t   torsion     pl eps
             4.314E+00 -4.466E-07  6.468E-08  4.441E-16 -4.441E-16  1.192E-10  0.000E+00


 integration point stresses
                       sigma 11       sigma 12       sigma 31   plastic  eps
    1              5.492771E-02  -5.686578E-09   8.238772E-10   0.000000E+00
    2              5.492771E-02  -5.686586E-09   8.232699E-10   0.000000E+00
    3              5.492771E-02  -5.685979E-09   8.232708E-10   0.000000E+00
    4              5.492771E-02  -5.685971E-09   8.238782E-10   0.000000E+00


 r e s u l t a n t s   a n d   s t r e s s e s   f o r   t i m e  s t e p      732   ( at time 1.54877E-01 )


 beam/truss # = 1000000      part ID  =       100      material type=     100

 resultants      axial    shear-s    shear-t    moment-s   moment-t   torsion     pl eps
             4.460E+00  2.795E-08  5.603E-08 -4.441E-16 -4.441E-16  1.178E-10  0.000E+00


 integration point stresses
                       sigma 11       sigma 12       sigma 31   plastic  eps
    1              5.679230E-02   3.555818E-10   7.137382E-10   0.000000E+00
    2              5.679230E-02   3.555730E-10   7.131382E-10   0.000000E+00
    3              5.679230E-02   3.561730E-10   7.131394E-10   0.000000E+00
    4              5.679230E-02   3.561817E-10   7.137394E-10   0.000000E+00


 r e s u l t a n t s   a n d   s t r e s s e s   f o r   t i m e  s t e p      756   ( at time 1.59962E-01 )


 beam/truss # = 1000000      part ID  =       100      material type=     100

 resultants      axial    shear-s    shear-t    moment-s   moment-t   torsion     pl eps
             4.607E+00  3.313E-07  4.866E-08  4.441E-16 -4.441E-16  1.180E-10  0.000E+00


 integration point stresses
                       sigma 11       sigma 12       sigma 31   plastic  eps
    1              5.865689E-02   4.217878E-09   6.198836E-10   0.000000E+00
    2              5.865689E-02   4.217868E-09   6.192826E-10   0.000000E+00
    3              5.865689E-02   4.218469E-09   6.192840E-10   0.000000E+00
    4              5.865689E-02   4.218479E-09   6.198851E-10   0.000000E+00


 r e s u l t a n t s   a n d   s t r e s s e s   f o r   t i m e  s t e p      779   ( at time 1.64834E-01 )


 beam/truss # = 1000000      part ID  =       100      material type=     100

 resultants      axial    shear-s    shear-t    moment-s   moment-t   torsion     pl eps
             4.747E+00  1.005E-06 -1.651E-07  4.441E-16 -4.441E-16 -2.269E-09  0.000E+00


 integration point stresses
                       sigma 11       sigma 12       sigma 31   plastic  eps
    1              6.044334E-02   1.280091E-08  -2.107630E-09   0.000000E+00
    2              6.044334E-02   1.280091E-08  -2.096073E-09   0.000000E+00
    3              6.044334E-02   1.278935E-08  -2.096071E-09   0.000000E+00
    4              6.044334E-02   1.278936E-08  -2.107629E-09   0.000000E+00


 r e s u l t a n t s   a n d   s t r e s s e s   f o r   t i m e  s t e p      803   ( at time 1.69914E-01 )


 beam/truss # = 1000000      part ID  =       100      material type=     100

 resultants      axial    shear-s    shear-t    moment-s   moment-t   torsion     pl eps
             4.894E+00 -1.978E-03 -6.135E-04  4.441E-16 -4.441E-16 -2.409E-07  0.000E+00


 integration point stresses
                       sigma 11       sigma 12       sigma 31   plastic  eps
    1              6.230637E-02  -2.518558E-05  -7.812444E-06   0.000000E+00
    2              6.230637E-02  -2.518558E-05  -7.811217E-06   0.000000E+00
    3              6.230637E-02  -2.518681E-05  -7.811217E-06   0.000000E+00
    4              6.230637E-02  -2.518681E-05  -7.812444E-06   0.000000E+00


 r e s u l t a n t s   a n d   s t r e s s e s   f o r   t i m e  s t e p      827   ( at time 1.74975E-01 )


 beam/truss # = 1000000      part ID  =       100      material type=     100

 resultants      axial    shear-s    shear-t    moment-s   moment-t   torsion     pl eps
             5.039E+00 -7.682E-03  9.043E-04  0.000E+00 -4.441E-16 -1.218E-06  0.000E+00


 integration point stresses
                       sigma 11       sigma 12       sigma 31   plastic  eps
    1              6.416225E-02  -9.780978E-05   1.151120E-05   0.000000E+00
    2              6.416225E-02  -9.780978E-05   1.151740E-05   0.000000E+00
    3              6.416225E-02  -9.781599E-05   1.151741E-05   0.000000E+00
    4              6.416225E-02  -9.781599E-05   1.151120E-05   0.000000E+00


 r e s u l t a n t s   a n d   s t r e s s e s   f o r   t i m e  s t e p      851   ( at time 1.79937E-01 )


 beam/truss # = 1000000      part ID  =       100      material type=     100

 resultants      axial    shear-s    shear-t    moment-s   moment-t   torsion     pl eps
             5.182E+00 -1.770E-02 -5.649E-04  0.000E+00 -4.441E-16 -1.940E-06  0.000E+00


 integration point stresses
                       sigma 11       sigma 12       sigma 31   plastic  eps
    1              6.598158E-02  -2.254134E-04  -7.197092E-06   0.000000E+00
    2              6.598158E-02  -2.254134E-04  -7.187229E-06   0.000000E+00
    3              6.598158E-02  -2.254233E-04  -7.187216E-06   0.000000E+00
    4              6.598158E-02  -2.254233E-04  -7.197079E-06   0.000000E+00


 r e s u l t a n t s   a n d   s t r e s s e s   f o r   t i m e  s t e p      876   ( at time 1.84997E-01 )


 beam/truss # = 1000000      part ID  =       100      material type=     100

 resultants      axial    shear-s    shear-t    moment-s   moment-t   torsion     pl eps
             5.328E+00 -9.547E-02 -1.642E-02  0.000E+00 -4.441E-16 -5.653E-06  0.000E+00


 integration point stresses
                       sigma 11       sigma 12       sigma 31   plastic  eps
    1              6.783702E-02  -1.215500E-03  -2.091203E-04   0.000000E+00
    2              6.783702E-02  -1.215500E-03  -2.090918E-04   0.000000E+00
    3              6.783702E-02  -1.215530E-03  -2.090919E-04   0.000000E+00
    4              6.783702E-02  -1.215530E-03  -2.091203E-04   0.000000E+00


 r e s u l t a n t s   a n d   s t r e s s e s   f o r   t i m e  s t e p      900   ( at time 1.89819E-01 )


 beam/truss # = 1000000      part ID  =       100      material type=     100

 resultants      axial    shear-s    shear-t    moment-s   moment-t   torsion     pl eps
             5.467E+00 -1.242E-01 -2.127E-02 -4.441E-16 -8.882E-16 -2.335E-05  0.000E+00


 integration point stresses
                       sigma 11       sigma 12       sigma 31   plastic  eps
    1              6.960522E-02  -1.581848E-03  -2.708302E-04   0.000000E+00
    2              6.960522E-02  -1.581848E-03  -2.707119E-04   0.000000E+00
    3              6.960522E-02  -1.581967E-03  -2.707118E-04   0.000000E+00
    4              6.960522E-02  -1.581967E-03  -2.708301E-04   0.000000E+00


 r e s u l t a n t s   a n d   s t r e s s e s   f o r   t i m e  s t e p      925   ( at time 1.94846E-01 )


 beam/truss # = 1000000      part ID  =       100      material type=     100

 resultants      axial    shear-s    shear-t    moment-s   moment-t   torsion     pl eps
             5.612E+00 -8.139E-02 -3.294E-02  4.441E-16 -4.441E-16 -6.233E-05  0.000E+00


 integration point stresses
                       sigma 11       sigma 12       sigma 31   plastic  eps
    1              7.144856E-02  -1.036147E-03  -4.195814E-04   0.000000E+00
    2              7.144856E-02  -1.036147E-03  -4.192648E-04   0.000000E+00
    3              7.144856E-02  -1.036465E-03  -4.192647E-04   0.000000E+00
    4              7.144856E-02  -1.036465E-03  -4.195813E-04   0.000000E+00


 r e s u l t a n t s   a n d   s t r e s s e s   f o r   t i m e  s t e p      950   ( at time 1.99869E-01 )


 beam/truss # = 1000000      part ID  =       100      material type=     100

 resultants      axial    shear-s    shear-t    moment-s   moment-t   torsion     pl eps
             5.756E+00  1.660E-01 -6.684E-02 -4.441E-16 -8.882E-16 -1.610E-04  0.000E+00


 integration point stresses
                       sigma 11       sigma 12       sigma 31   plastic  eps
    1              7.329044E-02   2.114579E-03  -8.514155E-04   0.000000E+00
    2              7.329044E-02   2.114581E-03  -8.505951E-04   0.000000E+00
    3              7.329044E-02   2.113762E-03  -8.505956E-04   0.000000E+00
    4              7.329044E-02   2.113760E-03  -8.514159E-04   0.000000E+00


 r e s u l t a n t s   a n d   s t r e s s e s   f o r   t i m e  s t e p      975   ( at time 2.04896E-01 )


 beam/truss # = 1000000      part ID  =       100      material type=     100

 resultants      axial    shear-s    shear-t    moment-s   moment-t   torsion     pl eps
             5.901E+00  2.166E-01  2.966E-02 -4.441E-16 -8.882E-16 -3.049E-04  0.000E+00


 integration point stresses
                       sigma 11       sigma 12       sigma 31   plastic  eps
    1              7.513408E-02   2.758031E-03   3.768447E-04   0.000000E+00
    2              7.513408E-02   2.758032E-03   3.783985E-04   0.000000E+00
    3              7.513408E-02   2.756481E-03   3.783994E-04   0.000000E+00
    4              7.513408E-02   2.756480E-03   3.768457E-04   0.000000E+00


 r e s u l t a n t s   a n d   s t r e s s e s   f o r   t i m e  s t e p     1000   ( at time 2.09923E-01 )


 beam/truss # = 1000000      part ID  =       100      material type=     100

 resultants      axial    shear-s    shear-t    moment-s   moment-t   torsion     pl eps
             6.046E+00  6.490E-02  3.844E-02 -4.441E-16 -8.882E-16 -4.107E-04  0.000E+00


 integration point stresses
                       sigma 11       sigma 12       sigma 31   plastic  eps
    1              7.697725E-02   8.273333E-04   4.883241E-04   0.000000E+00
    2              7.697725E-02   8.273327E-04   4.904173E-04   0.000000E+00
    3              7.697725E-02   8.252422E-04   4.904180E-04   0.000000E+00
    4              7.697725E-02   8.252428E-04   4.883248E-04   0.000000E+00


 r e s u l t a n t s   a n d   s t r e s s e s   f o r   t i m e  s t e p     1025   ( at time 2.14947E-01 )


 beam/truss # = 1000000      part ID  =       100      material type=     100

 resultants      axial    shear-s    shear-t    moment-s   moment-t   torsion     pl eps
             6.190E+00 -4.367E-01  8.155E-02 -4.441E-16 -8.882E-16 -3.817E-04  0.000E+00


 integration point stresses
                       sigma 11       sigma 12       sigma 31   plastic  eps
    1              7.881957E-02  -5.558933E-03   1.037298E-03   0.000000E+00
    2              7.881957E-02  -5.558935E-03   1.039249E-03   0.000000E+00
    3              7.881957E-02  -5.560872E-03   1.039250E-03   0.000000E+00
    4              7.881957E-02  -5.560870E-03   1.037299E-03   0.000000E+00


 r e s u l t a n t s   a n d   s t r e s s e s   f o r   t i m e  s t e p     1050   ( at time 2.19971E-01 )


 beam/truss # = 1000000      part ID  =       100      material type=     100

 resultants      axial    shear-s    shear-t    moment-s   moment-t   torsion     pl eps
             6.335E+00 -3.065E-01 -4.340E-03  4.441E-16 -8.882E-16 -1.873E-04  0.000E+00


 integration point stresses
                       sigma 11       sigma 12       sigma 31   plastic  eps
    1              8.066192E-02  -3.901372E-03  -5.573481E-05   0.000000E+00
    2              8.066192E-02  -3.901373E-03  -5.477627E-05   0.000000E+00
    3              8.066192E-02  -3.902322E-03  -5.477268E-05   0.000000E+00
    4              8.066192E-02  -3.902321E-03  -5.573122E-05   0.000000E+00


 r e s u l t a n t s   a n d   s t r e s s e s   f o r   t i m e  s t e p     1074   ( at time 2.24799E-01 )


 beam/truss # = 1000000      part ID  =       100      material type=     100

 resultants      axial    shear-s    shear-t    moment-s   moment-t   torsion     pl eps
             6.474E+00 -8.449E-03 -1.610E-02  8.882E-16  0.000E+00  1.008E-04  0.000E+00


 integration point stresses
                       sigma 11       sigma 12       sigma 31   plastic  eps
    1              8.243236E-02  -1.078293E-04  -2.046793E-04   0.000000E+00
    2              8.243236E-02  -1.078296E-04  -2.051920E-04   0.000000E+00
    3              8.243236E-02  -1.073153E-04  -2.051876E-04   0.000000E+00
    4              8.243236E-02  -1.073150E-04  -2.046749E-04   0.000000E+00


 r e s u l t a n t s   a n d   s t r e s s e s   f o r   t i m e  s t e p     1099   ( at time 2.29827E-01 )


 beam/truss # = 1000000      part ID  =       100      material type=     100

 resultants      axial    shear-s    shear-t    moment-s   moment-t   torsion     pl eps
             6.619E+00  5.104E-01 -6.960E-02  8.882E-16 -8.882E-16  4.580E-04  0.000E+00


 integration point stresses
                       sigma 11       sigma 12       sigma 31   plastic  eps
    1              8.427606E-02   6.497011E-03  -8.850386E-04   0.000000E+00
    2              8.427606E-02   6.497016E-03  -8.873734E-04   0.000000E+00
    3              8.427606E-02   6.499347E-03  -8.873678E-04   0.000000E+00
    4              8.427606E-02   6.499342E-03  -8.850330E-04   0.000000E+00


 r e s u l t a n t s   a n d   s t r e s s e s   f o r   t i m e  s t e p     1124   ( at time 2.34854E-01 )


 beam/truss # = 1000000      part ID  =       100      material type=     100

 resultants      axial    shear-s    shear-t    moment-s   moment-t   torsion     pl eps
             6.764E+00  2.977E-01 -1.762E-02  8.882E-16 -8.882E-16  8.119E-04  0.000E+00


 integration point stresses
                       sigma 11       sigma 12       sigma 31   plastic  eps
    1              8.611915E-02   3.788065E-03  -2.222829E-04   0.000000E+00
    2              8.611915E-02   3.788067E-03  -2.264211E-04   0.000000E+00
    3              8.611915E-02   3.792199E-03  -2.264153E-04   0.000000E+00
    4              8.611915E-02   3.792197E-03  -2.222771E-04   0.000000E+00


 r e s u l t a n t s   a n d   s t r e s s e s   f o r   t i m e  s t e p     1149   ( at time 2.39879E-01 )


 beam/truss # = 1000000      part ID  =       100      material type=     100

 resultants      axial    shear-s    shear-t    moment-s   moment-t   torsion     pl eps
             6.909E+00 -5.353E-02 -1.881E-02 -8.882E-16 -8.882E-16  1.062E-03  0.000E+00


 integration point stresses
                       sigma 11       sigma 12       sigma 31   plastic  eps
    1              8.796209E-02  -6.842628E-04  -2.367316E-04   0.000000E+00
    2              8.796209E-02  -6.842589E-04  -2.421445E-04   0.000000E+00
    3              8.796209E-02  -6.788565E-04  -2.421388E-04   0.000000E+00
    4              8.796209E-02  -6.788604E-04  -2.367259E-04   0.000000E+00


 r e s u l t a n t s   a n d   s t r e s s e s   f o r   t i m e  s t e p     1174   ( at time 2.44905E-01 )


 beam/truss # = 1000000      part ID  =       100      material type=     100

 resultants      axial    shear-s    shear-t    moment-s   moment-t   torsion     pl eps
             7.053E+00 -5.151E-01  2.871E-02  8.882E-16 -8.882E-16  1.204E-03  0.000E+00


 integration point stresses
                       sigma 11       sigma 12       sigma 31   plastic  eps
    1              8.980483E-02  -6.561835E-03   3.686640E-04   0.000000E+00
    2              8.980483E-02  -6.561809E-03   3.625266E-04   0.000000E+00
    3              8.980483E-02  -6.555685E-03   3.625325E-04   0.000000E+00
    4              8.980483E-02  -6.555711E-03   3.686699E-04   0.000000E+00


 r e s u l t a n t s   a n d   s t r e s s e s   f o r   t i m e  s t e p     1199   ( at time 2.49931E-01 )


 beam/truss # = 1000000      part ID  =       100      material type=     100

 resultants      axial    shear-s    shear-t    moment-s   moment-t   torsion     pl eps
             7.198E+00 -1.842E-01  1.183E-02  8.882E-16 -8.882E-16  1.264E-03  0.000E+00


 integration point stresses
                       sigma 11       sigma 12       sigma 31   plastic  eps
    1              9.164780E-02  -2.348515E-03   1.538338E-04   0.000000E+00
    2              9.164780E-02  -2.348526E-03   1.473895E-04   0.000000E+00
    3              9.164780E-02  -2.342099E-03   1.473957E-04   0.000000E+00
    4              9.164780E-02  -2.342088E-03   1.538399E-04   0.000000E+00


 r e s u l t a n t s   a n d   s t r e s s e s   f o r   t i m e  s t e p     1224   ( at time 2.54953E-01 )


 beam/truss # = 1000000      part ID  =       100      material type=     100

 resultants      axial    shear-s    shear-t    moment-s   moment-t   torsion     pl eps
             7.343E+00 -4.614E-02  4.184E-02  0.000E+00 -8.882E-16  1.210E-03  0.000E+00


 integration point stresses
                       sigma 11       sigma 12       sigma 31   plastic  eps
    1              9.348941E-02  -5.905535E-04   5.358036E-04   0.000000E+00
    2              9.348941E-02  -5.905853E-04   5.296314E-04   0.000000E+00
    3              9.348941E-02  -5.844354E-04   5.296376E-04   0.000000E+00
    4              9.348941E-02  -5.844037E-04   5.358097E-04   0.000000E+00


 r e s u l t a n t s   a n d   s t r e s s e s   f o r   t i m e  s t e p     1249   ( at time 2.59974E-01 )


 beam/truss # = 1000000      part ID  =       100      material type=     100

 resultants      axial    shear-s    shear-t    moment-s   moment-t   torsion     pl eps
             7.487E+00 -9.532E-02  3.561E-02  8.882E-16 -8.882E-16  1.032E-03  0.000E+00


 integration point stresses
                       sigma 11       sigma 12       sigma 31   plastic  eps
    1              9.533071E-02  -1.216260E-03   4.560751E-04   0.000000E+00
    2              9.533071E-02  -1.216291E-03   4.508082E-04   0.000000E+00
    3              9.533071E-02  -1.211042E-03   4.508156E-04   0.000000E+00
    4              9.533071E-02  -1.211011E-03   4.560825E-04   0.000000E+00


 r e s u l t a n t s   a n d   s t r e s s e s   f o r   t i m e  s t e p     1274   ( at time 2.64998E-01 )


 beam/truss # = 1000000      part ID  =       100      material type=     100

 resultants      axial    shear-s    shear-t    moment-s   moment-t   torsion     pl eps
             7.632E+00 -4.695E-01  3.419E-02  8.882E-16 -8.882E-16  7.783E-04  0.000E+00


 integration point stresses
                       sigma 11       sigma 12       sigma 31   plastic  eps
    1              9.717280E-02  -5.980417E-03   4.373378E-04   0.000000E+00
    2              9.717280E-02  -5.980436E-03   4.333762E-04   0.000000E+00
    3              9.717280E-02  -5.976470E-03   4.333847E-04   0.000000E+00
    4              9.717280E-02  -5.976451E-03   4.373463E-04   0.000000E+00


 r e s u l t a n t s   a n d   s t r e s s e s   f o r   t i m e  s t e p     1298   ( at time 2.69819E-01 )


 beam/truss # = 1000000      part ID  =       100      material type=     100

 resultants      axial    shear-s    shear-t    moment-s   moment-t   torsion     pl eps
             7.771E+00  2.185E-01  4.864E-02 -8.882E-16 -8.882E-16  5.491E-04  0.000E+00


 integration point stresses
                       sigma 11       sigma 12       sigma 31   plastic  eps
    1              9.894058E-02   2.780554E-03   6.206480E-04   0.000000E+00
    2              9.894058E-02   2.780531E-03   6.178457E-04   0.000000E+00
    3              9.894058E-02   2.783322E-03   6.178542E-04   0.000000E+00
    4              9.894058E-02   2.783345E-03   6.206565E-04   0.000000E+00


 r e s u l t a n t s   a n d   s t r e s s e s   f o r   t i m e  s t e p     1323   ( at time 2.74841E-01 )


 beam/truss # = 1000000      part ID  =       100      material type=     100

 resultants      axial    shear-s    shear-t    moment-s   moment-t   torsion     pl eps
             7.915E+00  8.889E-01  4.760E-02  8.882E-16 -8.882E-16  3.700E-04  0.000E+00


 integration point stresses
                       sigma 11       sigma 12       sigma 31   plastic  eps
    1              1.007822E-01   1.131682E-02   6.069836E-04   0.000000E+00
    2              1.007822E-01   1.131680E-02   6.050856E-04   0.000000E+00
    3              1.007822E-01   1.131867E-02   6.050946E-04   0.000000E+00
    4              1.007822E-01   1.131869E-02   6.069926E-04   0.000000E+00


 r e s u l t a n t s   a n d   s t r e s s e s   f o r   t i m e  s t e p     1348   ( at time 2.79862E-01 )


 beam/truss # = 1000000      part ID  =       100      material type=     100

 resultants      axial    shear-s    shear-t    moment-s   moment-t   torsion     pl eps
             8.060E+00  3.612E-01 -9.451E-03 -8.882E-16 -8.882E-16  2.823E-04  0.000E+00


 integration point stresses
                       sigma 11       sigma 12       sigma 31   plastic  eps
    1              1.026233E-01   4.598401E-03  -1.196146E-04   0.000000E+00
    2              1.026233E-01   4.598348E-03  -1.210552E-04   0.000000E+00
    3              1.026233E-01   4.599782E-03  -1.210438E-04   0.000000E+00
    4              1.026233E-01   4.599835E-03  -1.196031E-04   0.000000E+00


 r e s u l t a n t s   a n d   s t r e s s e s   f o r   t i m e  s t e p     1373   ( at time 2.84892E-01 )


 beam/truss # = 1000000      part ID  =       100      material type=     100

 resultants      axial    shear-s    shear-t    moment-s   moment-t   torsion     pl eps
             8.205E+00 -9.376E-01 -4.651E-02  8.882E-16 -8.882E-16  2.470E-04  0.000E+00


 integration point stresses
                       sigma 11       sigma 12       sigma 31   plastic  eps
    1              1.044679E-01  -1.193908E-02  -5.916069E-04   0.000000E+00
    2              1.044679E-01  -1.193923E-02  -5.928509E-04   0.000000E+00
    3              1.044679E-01  -1.193796E-02  -5.928380E-04   0.000000E+00
    4              1.044679E-01  -1.193781E-02  -5.915940E-04   0.000000E+00


 r e s u l t a n t s   a n d   s t r e s s e s   f o r   t i m e  s t e p     1398   ( at time 2.89922E-01 )


 beam/truss # = 1000000      part ID  =       100      material type=     100

 resultants      axial    shear-s    shear-t    moment-s   moment-t   torsion     pl eps
             8.350E+00 -1.091E+00 -2.342E-02 -8.882E-16 -8.882E-16  2.028E-04  0.000E+00


 integration point stresses
                       sigma 11       sigma 12       sigma 31   plastic  eps
    1              1.063125E-01  -1.388945E-02  -2.977130E-04   0.000000E+00
    2              1.063125E-01  -1.388958E-02  -2.987328E-04   0.000000E+00
    3              1.063125E-01  -1.388854E-02  -2.987202E-04   0.000000E+00
    4              1.063125E-01  -1.388840E-02  -2.977004E-04   0.000000E+00


 r e s u l t a n t s   a n d   s t r e s s e s   f o r   t i m e  s t e p     1423   ( at time 2.94947E-01 )


 beam/truss # = 1000000      part ID  =       100      material type=     100

 resultants      axial    shear-s    shear-t    moment-s   moment-t   torsion     pl eps
             8.494E+00  1.369E-01  3.183E-02  8.882E-16 -8.882E-16  1.598E-04  0.000E+00


 integration point stresses
                       sigma 11       sigma 12       sigma 31   plastic  eps
    1              1.081549E-01   1.742899E-03   4.056876E-04   0.000000E+00
    2              1.081549E-01   1.742916E-03   4.048671E-04   0.000000E+00
    3              1.081549E-01   1.743723E-03   4.048784E-04   0.000000E+00
    4              1.081549E-01   1.743706E-03   4.056989E-04   0.000000E+00


 r e s u l t a n t s   a n d   s t r e s s e s   f o r   t i m e  s t e p     1448   ( at time 2.99971E-01 )


 beam/truss # = 1000000      part ID  =       100      material type=     100

 resultants      axial    shear-s    shear-t    moment-s   moment-t   torsion     pl eps
             8.639E+00  1.493E+00  4.177E-02  8.882E-16 -8.882E-16  2.401E-04  0.000E+00


 integration point stresses
                       sigma 11       sigma 12       sigma 31   plastic  eps
    1              1.099972E-01   1.901084E-02   5.324447E-04   0.000000E+00
    2              1.099972E-01   1.901098E-02   5.311936E-04   0.000000E+00
    3              1.099972E-01   1.901218E-02   5.312052E-04   0.000000E+00
    4              1.099972E-01   1.901203E-02   5.324563E-04   0.000000E+00


 r e s u l t a n t s   a n d   s t r e s s e s   f o r   t i m e  s t e p     1473   ( at time 3.04996E-01 )


 beam/truss # = 1000000      part ID  =       100      material type=     100

 resultants      axial    shear-s    shear-t    moment-s   moment-t   torsion     pl eps
             8.784E+00  1.045E+00  1.826E-02  8.882E-16 -8.882E-16  5.768E-04  0.000E+00


 integration point stresses
                       sigma 11       sigma 12       sigma 31   plastic  eps
    1              1.118400E-01   1.330782E-02   2.339775E-04   0.000000E+00
    2              1.118400E-01   1.330793E-02   2.310159E-04   0.000000E+00
    3              1.118400E-01   1.331084E-02   2.310285E-04   0.000000E+00
    4              1.118400E-01   1.331073E-02   2.339901E-04   0.000000E+00


 r e s u l t a n t s   a n d   s t r e s s e s   f o r   t i m e  s t e p     1497   ( at time 3.09819E-01 )


 beam/truss # = 1000000      part ID  =       100      material type=     100

 resultants      axial    shear-s    shear-t    moment-s   moment-t   torsion     pl eps
             8.923E+00 -4.833E-01 -1.892E-02  0.000E+00 -8.882E-16  1.048E-03  0.000E+00


 integration point stresses
                       sigma 11       sigma 12       sigma 31   plastic  eps
    1              1.136085E-01  -6.156459E-03  -2.382488E-04   0.000000E+00
    2              1.136085E-01  -6.156400E-03  -2.435997E-04   0.000000E+00
    3              1.136085E-01  -6.151080E-03  -2.435866E-04   0.000000E+00
    4              1.136085E-01  -6.151139E-03  -2.382356E-04   0.000000E+00


 r e s u l t a n t s   a n d   s t r e s s e s   f o r   t i m e  s t e p     1522   ( at time 3.14840E-01 )


 beam/truss # = 1000000      part ID  =       100      material type=     100

 resultants      axial    shear-s    shear-t    moment-s   moment-t   torsion     pl eps
             9.067E+00 -6.489E-01 -3.067E-02  0.000E+00 -8.882E-16  1.362E-03  0.000E+00


 integration point stresses
                       sigma 11       sigma 12       sigma 31   plastic  eps
    1              1.154498E-01  -8.265802E-03  -3.870554E-04   0.000000E+00
    2              1.154498E-01  -8.265747E-03  -3.940060E-04   0.000000E+00
    3              1.154498E-01  -8.258826E-03  -3.939929E-04   0.000000E+00
    4              1.154498E-01  -8.258880E-03  -3.870423E-04   0.000000E+00


 r e s u l t a n t s   a n d   s t r e s s e s   f o r   t i m e  s t e p     1547   ( at time 3.19863E-01 )


 beam/truss # = 1000000      part ID  =       100      material type=     100

 resultants      axial    shear-s    shear-t    moment-s   moment-t   torsion     pl eps
             9.212E+00  6.914E-01  1.218E-03  8.882E-16 -8.882E-16  1.281E-03  0.000E+00


 integration point stresses
                       sigma 11       sigma 12       sigma 31   plastic  eps
    1              1.172916E-01   8.800137E-03   1.876770E-05   0.000000E+00
    2              1.172916E-01   8.800208E-03   1.224166E-05   0.000000E+00
    3              1.172916E-01   8.806733E-03   1.225529E-05   0.000000E+00
    4              1.172916E-01   8.806661E-03   1.878134E-05   0.000000E+00


 r e s u l t a n t s   a n d   s t r e s s e s   f o r   t i m e  s t e p     1572   ( at time 3.24885E-01 )


 beam/truss # = 1000000      part ID  =       100      material type=     100

 resultants      axial    shear-s    shear-t    moment-s   moment-t   torsion     pl eps
             9.357E+00  8.776E-01  3.274E-02 -8.882E-16 -8.882E-16  8.426E-04  0.000E+00


 integration point stresses
                       sigma 11       sigma 12       sigma 31   plastic  eps
    1              1.191330E-01   1.117188E-02   4.189342E-04   0.000000E+00
    2              1.191330E-01   1.117196E-02   4.146510E-04   0.000000E+00
    3              1.191330E-01   1.117626E-02   4.146657E-04   0.000000E+00
    4              1.191330E-01   1.117618E-02   4.189489E-04   0.000000E+00


 r e s u l t a n t s   a n d   s t r e s s e s   f o r   t i m e  s t e p     1597   ( at time 3.29915E-01 )


 beam/truss # = 1000000      part ID  =       100      material type=     100

 resultants      axial    shear-s    shear-t    moment-s   moment-t   torsion     pl eps
             9.502E+00 -4.549E-01 -3.812E-03  8.882E-16 -8.882E-16  2.476E-04  0.000E+00


 integration point stresses
                       sigma 11       sigma 12       sigma 31   plastic  eps
    1              1.209776E-01  -5.793061E-03  -4.790798E-05   0.000000E+00
    2              1.209776E-01  -5.792975E-03  -4.917746E-05   0.000000E+00
    3              1.209776E-01  -5.791722E-03  -4.916408E-05   0.000000E+00
    4              1.209776E-01  -5.791809E-03  -4.789461E-05   0.000000E+00


 r e s u l t a n t s   a n d   s t r e s s e s   f o r   t i m e  s t e p     1622   ( at time 3.34943E-01 )


 beam/truss # = 1000000      part ID  =       100      material type=     100

 resultants      axial    shear-s    shear-t    moment-s   moment-t   torsion     pl eps
             9.646E+00 -7.820E-01 -3.492E-02  8.882E-16 -8.882E-16 -2.536E-04  0.000E+00


 integration point stresses
                       sigma 11       sigma 12       sigma 31   plastic  eps
    1              1.228213E-01  -9.955769E-03  -4.452964E-04   0.000000E+00
    2              1.228213E-01  -9.955689E-03  -4.440103E-04   0.000000E+00
    3              1.228213E-01  -9.956986E-03  -4.439984E-04   0.000000E+00
    4              1.228213E-01  -9.957066E-03  -4.452845E-04   0.000000E+00


 r e s u l t a n t s   a n d   s t r e s s e s   f o r   t i m e  s t e p     1647   ( at time 3.39966E-01 )


 beam/truss # = 1000000      part ID  =       100      material type=     100

 resultants      axial    shear-s    shear-t    moment-s   moment-t   torsion     pl eps
             9.791E+00  1.356E-01 -5.761E-02  8.882E-16 -8.882E-16 -4.948E-04  0.000E+00


 integration point stresses
                       sigma 11       sigma 12       sigma 31   plastic  eps
    1              1.246633E-01   1.727166E-03  -7.347724E-04   0.000000E+00
    2              1.246633E-01   1.727176E-03  -7.322265E-04   0.000000E+00
    3              1.246633E-01   1.724682E-03  -7.322160E-04   0.000000E+00
    4              1.246633E-01   1.724672E-03  -7.347619E-04   0.000000E+00


 r e s u l t a n t s   a n d   s t r e s s e s   f o r   t i m e  s t e p     1672   ( at time 3.44994E-01 )


 beam/truss # = 1000000      part ID  =       100      material type=     100

 resultants      axial    shear-s    shear-t    moment-s   moment-t   torsion     pl eps
             9.936E+00  9.930E-01  2.476E-02  8.882E-16 -8.882E-16 -4.945E-04  0.000E+00


 integration point stresses
                       sigma 11       sigma 12       sigma 31   plastic  eps
    1              1.265067E-01   1.264408E-02   3.140091E-04   0.000000E+00
    2              1.265067E-01   1.264401E-02   3.165774E-04   0.000000E+00
    3              1.265067E-01   1.264154E-02   3.165922E-04   0.000000E+00
    4              1.265067E-01   1.264161E-02   3.140239E-04   0.000000E+00


 r e s u l t a n t s   a n d   s t r e s s e s   f o r   t i m e  s t e p     1696   ( at time 3.49814E-01 )


 beam/truss # = 1000000      part ID  =       100      material type=     100

 resultants      axial    shear-s    shear-t    moment-s   moment-t   torsion     pl eps
             1.007E+01  5.793E-01  4.073E-02  0.000E+00 -8.882E-16 -3.185E-04  0.000E+00


 integration point stresses
                       sigma 11       sigma 12       sigma 31   plastic  eps
    1              1.282744E-01   7.376726E-03   5.177216E-04   0.000000E+00
    2              1.282744E-01   7.376669E-03   5.193908E-04   0.000000E+00
    3              1.282744E-01   7.375095E-03   5.194064E-04   0.000000E+00
    4              1.282744E-01   7.375152E-03   5.177372E-04   0.000000E+00


 r e s u l t a n t s   a n d   s t r e s s e s   f o r   t i m e  s t e p     1721   ( at time 3.54837E-01 )


 beam/truss # = 1000000      part ID  =       100      material type=     100

 resultants      axial    shear-s    shear-t    moment-s   moment-t   torsion     pl eps
             1.022E+01 -7.711E-01  1.443E-02  0.000E+00 -8.882E-16 -1.539E-07  0.000E+00


 integration point stresses
                       sigma 11       sigma 12       sigma 31   plastic  eps
    1              1.301163E-01  -9.817470E-03   1.836436E-04   0.000000E+00
    2              1.301163E-01  -9.817448E-03   1.836743E-04   0.000000E+00
    3              1.301163E-01  -9.817418E-03   1.836888E-04   0.000000E+00
    4              1.301163E-01  -9.817441E-03   1.836581E-04   0.000000E+00


 r e s u l t a n t s   a n d   s t r e s s e s   f o r   t i m e  s t e p     1746   ( at time 3.59864E-01 )


 beam/truss # = 1000000      part ID  =       100      material type=     100

 resultants      axial    shear-s    shear-t    moment-s   moment-t   torsion     pl eps
             1.036E+01 -1.144E+00 -3.265E-02 -8.882E-16 -1.776E-15  4.583E-04  0.000E+00


 integration point stresses
                       sigma 11       sigma 12       sigma 31   plastic  eps
    1              1.319596E-01  -1.456081E-02  -4.146111E-04   0.000000E+00
    2              1.319596E-01  -1.456082E-02  -4.169084E-04   0.000000E+00
    3              1.319596E-01  -1.455845E-02  -4.168958E-04   0.000000E+00
    4              1.319596E-01  -1.455844E-02  -4.145985E-04   0.000000E+00


 r e s u l t a n t s   a n d   s t r e s s e s   f o r   t i m e  s t e p     1771   ( at time 3.64885E-01 )


 beam/truss # = 1000000      part ID  =       100      material type=     100

 resultants      axial    shear-s    shear-t    moment-s   moment-t   torsion     pl eps
             1.051E+01 -2.547E-01 -6.600E-04  8.882E-16 -8.882E-16  1.009E-03  0.000E+00


 integration point stresses
                       sigma 11       sigma 12       sigma 31   plastic  eps
    1              1.338008E-01  -3.244886E-03  -5.866709E-06   0.000000E+00
    2              1.338008E-01  -3.245067E-03  -1.095213E-05   0.000000E+00
    3              1.338008E-01  -3.239870E-03  -1.093891E-05   0.000000E+00
    4              1.338008E-01  -3.239690E-03  -5.853496E-06   0.000000E+00


 r e s u l t a n t s   a n d   s t r e s s e s   f o r   t i m e  s t e p     1796   ( at time 3.69907E-01 )


 beam/truss # = 1000000      part ID  =       100      material type=     100

 resultants      axial    shear-s    shear-t    moment-s   moment-t   torsion     pl eps
             1.065E+01  1.866E-01  3.016E-02  0.000E+00 -8.882E-16  1.403E-03  0.000E+00


 integration point stresses
                       sigma 11       sigma 12       sigma 31   plastic  eps
    1              1.356422E-01   2.372039E-03   3.875253E-04   0.000000E+00
    2              1.356422E-01   2.371784E-03   3.804397E-04   0.000000E+00
    3              1.356422E-01   2.378993E-03   3.804533E-04   0.000000E+00
    4              1.356422E-01   2.379248E-03   3.875389E-04   0.000000E+00


 r e s u l t a n t s   a n d   s t r e s s e s   f o r   t i m e  s t e p     1821   ( at time 3.74951E-01 )


 beam/truss # = 1000000      part ID  =       100      material type=     100

 resultants      axial    shear-s    shear-t    moment-s   moment-t   torsion     pl eps
             1.080E+01 -6.642E-01  3.289E-02 -8.882E-16 -1.776E-15  1.350E-03  0.000E+00


 integration point stresses
                       sigma 11       sigma 12       sigma 31   plastic  eps
    1              1.374917E-01  -8.459692E-03   4.222264E-04   0.000000E+00
    2              1.374917E-01  -8.459925E-03   4.154129E-04   0.000000E+00
    3              1.374917E-01  -8.452988E-03   4.154267E-04   0.000000E+00
    4              1.374917E-01  -8.452755E-03   4.222401E-04   0.000000E+00


 r e s u l t a n t s   a n d   s t r e s s e s   f o r   t i m e  s t e p     1846   ( at time 3.79971E-01 )


 beam/truss # = 1000000      part ID  =       100      material type=     100

 resultants      axial    shear-s    shear-t    moment-s   moment-t   torsion     pl eps
             1.094E+01 -4.403E-01 -1.856E-02  0.000E+00 -8.882E-16  8.150E-04  0.000E+00


 integration point stresses
                       sigma 11       sigma 12       sigma 31   plastic  eps
    1              1.393327E-01  -5.608617E-03  -2.342417E-04   0.000000E+00
    2              1.393327E-01  -5.608850E-03  -2.383313E-04   0.000000E+00
    3              1.393327E-01  -5.604639E-03  -2.383170E-04   0.000000E+00
    4              1.393327E-01  -5.604405E-03  -2.342274E-04   0.000000E+00


 r e s u l t a n t s   a n d   s t r e s s e s   f o r   t i m e  s t e p     1871   ( at time 3.84998E-01 )


 beam/truss # = 1000000      part ID  =       100      material type=     100

 resultants      axial    shear-s    shear-t    moment-s   moment-t   torsion     pl eps
             1.109E+01  3.679E-01 -4.268E-02  8.882E-16 -8.882E-16  3.442E-05  0.000E+00


 integration point stresses
                       sigma 11       sigma 12       sigma 31   plastic  eps
    1              1.411762E-01   4.683993E-03  -5.433385E-04   0.000000E+00
    2              1.411762E-01   4.683756E-03  -5.434570E-04   0.000000E+00
    3              1.411762E-01   4.683987E-03  -5.434422E-04   0.000000E+00
    4              1.411762E-01   4.684224E-03  -5.433238E-04   0.000000E+00


 r e s u l t a n t s   a n d   s t r e s s e s   f o r   t i m e  s t e p     1895   ( at time 3.89818E-01 )


 beam/truss # = 1000000      part ID  =       100      material type=     100

 resultants      axial    shear-s    shear-t    moment-s   moment-t   torsion     pl eps
             1.123E+01  1.007E+00 -3.238E-02  0.000E+00 -8.882E-16 -6.153E-04  0.000E+00


 integration point stresses
                       sigma 11       sigma 12       sigma 31   plastic  eps
    1              1.429435E-01   1.282557E-02  -4.138498E-04   0.000000E+00
    2              1.429435E-01   1.282533E-02  -4.106638E-04   0.000000E+00
    3              1.429435E-01   1.282225E-02  -4.106494E-04   0.000000E+00
    4              1.429435E-01   1.282249E-02  -4.138355E-04   0.000000E+00


 r e s u l t a n t s   a n d   s t r e s s e s   f o r   t i m e  s t e p     1920   ( at time 3.94841E-01 )


 beam/truss # = 1000000      part ID  =       100      material type=     100

 resultants      axial    shear-s    shear-t    moment-s   moment-t   torsion     pl eps
             1.137E+01  1.332E-01  3.898E-02  0.000E+00 -8.882E-16 -9.207E-04  0.000E+00


 integration point stresses
                       sigma 11       sigma 12       sigma 31   plastic  eps
    1              1.447856E-01   1.698163E-03   4.939155E-04   0.000000E+00
    2              1.447856E-01   1.697881E-03   4.986807E-04   0.000000E+00
    3              1.447856E-01   1.693268E-03   4.986922E-04   0.000000E+00
    4              1.447856E-01   1.693550E-03   4.939269E-04   0.000000E+00


 r e s u l t a n t s   a n d   s t r e s s e s   f o r   t i m e  s t e p     1945   ( at time 3.99874E-01 )


 beam/truss # = 1000000      part ID  =       100      material type=     100

 resultants      axial    shear-s    shear-t    moment-s   moment-t   torsion     pl eps
             1.152E+01 -2.433E-01  5.042E-02  0.000E+00 -8.882E-16 -7.974E-04  0.000E+00


 integration point stresses
                       sigma 11       sigma 12       sigma 31   plastic  eps
    1              1.466309E-01  -3.095261E-03   6.398393E-04   0.000000E+00
    2              1.466309E-01  -3.095569E-03   6.439861E-04   0.000000E+00
    3              1.466309E-01  -3.099544E-03   6.439970E-04   0.000000E+00
    4              1.466309E-01  -3.099236E-03   6.398502E-04   0.000000E+00


 r e s u l t a n t s   a n d   s t r e s s e s   f o r   t i m e  s t e p     1970   ( at time 4.04894E-01 )


 beam/truss # = 1000000      part ID  =       100      material type=     100

 resultants      axial    shear-s    shear-t    moment-s   moment-t   torsion     pl eps
             1.166E+01 -2.261E-02  5.997E-03  0.000E+00 -8.882E-16 -3.563E-04  0.000E+00


 integration point stresses
                       sigma 11       sigma 12       sigma 31   plastic  eps
    1              1.484717E-01  -2.868375E-04   7.540469E-05   0.000000E+00
    2              1.484717E-01  -2.871313E-04   7.729794E-05   0.000000E+00
    3              1.484717E-01  -2.888665E-04   7.731099E-05   0.000000E+00
    4              1.484717E-01  -2.885726E-04   7.541774E-05   0.000000E+00


 r e s u l t a n t s   a n d   s t r e s s e s   f o r   t i m e  s t e p     1995   ( at time 4.09913E-01 )


 beam/truss # = 1000000      part ID  =       100      material type=     100

 resultants      axial    shear-s    shear-t    moment-s   moment-t   torsion     pl eps
             1.181E+01  3.693E-01 -1.837E-02  8.882E-16 -1.776E-15  2.612E-04  0.000E+00


 integration point stresses
                       sigma 11       sigma 12       sigma 31   plastic  eps
    1              1.503123E-01   4.702036E-03  -2.332204E-04   0.000000E+00
    2              1.503123E-01   4.701774E-03  -2.344846E-04   0.000000E+00
    3              1.503123E-01   4.703171E-03  -2.344705E-04   0.000000E+00
    4              1.503123E-01   4.703433E-03  -2.332063E-04   0.000000E+00


 r e s u l t a n t s   a n d   s t r e s s e s   f o r   t i m e  s t e p     2020   ( at time 4.14938E-01 )


 beam/truss # = 1000000      part ID  =       100      material type=     100

 resultants      axial    shear-s    shear-t    moment-s   moment-t   torsion     pl eps
             1.195E+01 -3.823E-03  2.767E-02 -8.882E-16 -1.776E-15  9.388E-04  0.000E+00


 integration point stresses
                       sigma 11       sigma 12       sigma 31   plastic  eps
    1              1.521547E-01  -5.096237E-05   3.546893E-04   0.000000E+00
    2              1.521547E-01  -5.124086E-05   3.499808E-04   0.000000E+00
    3              1.521547E-01  -4.638653E-05   3.499925E-04   0.000000E+00
    4              1.521547E-01  -4.610805E-05   3.547009E-04   0.000000E+00


 r e s u l t a n t s   a n d   s t r e s s e s   f o r   t i m e  s t e p     2045   ( at time 4.19981E-01 )


 beam/truss # = 1000000      part ID  =       100      material type=     100

 resultants      axial    shear-s    shear-t    moment-s   moment-t   torsion     pl eps
             1.210E+01 -5.643E-01  4.296E-02  0.000E+00 -8.882E-16  1.544E-03  0.000E+00


 integration point stresses
                       sigma 11       sigma 12       sigma 31   plastic  eps
    1              1.540040E-01  -7.188805E-03   5.508951E-04   0.000000E+00
    2              1.540040E-01  -7.189117E-03   5.431141E-04   0.000000E+00
    3              1.540040E-01  -7.181175E-03   5.431246E-04   0.000000E+00
    4              1.540040E-01  -7.180863E-03   5.509056E-04   0.000000E+00


 r e s u l t a n t s   a n d   s t r e s s e s   f o r   t i m e  s t e p     2069   ( at time 4.24804E-01 )


 beam/truss # = 1000000      part ID  =       100      material type=     100

 resultants      axial    shear-s    shear-t    moment-s   moment-t   torsion     pl eps
             1.223E+01 -7.008E-01 -1.408E-03  0.000E+00 -8.882E-16  1.954E-03  0.000E+00


 integration point stresses
                       sigma 11       sigma 12       sigma 31   plastic  eps
    1              1.557727E-01  -8.928318E-03  -1.299820E-05   0.000000E+00
    2              1.557727E-01  -8.928621E-03  -2.287346E-05   0.000000E+00
    3              1.557727E-01  -8.918591E-03  -2.286209E-05   0.000000E+00
    4              1.557727E-01  -8.918288E-03  -1.298686E-05   0.000000E+00


 r e s u l t a n t s   a n d   s t r e s s e s   f o r   t i m e  s t e p     2094   ( at time 4.29824E-01 )


 beam/truss # = 1000000      part ID  =       100      material type=     100

 resultants      axial    shear-s    shear-t    moment-s   moment-t   torsion     pl eps
             1.238E+01 -2.565E-01 -4.725E-02  0.000E+00 -8.882E-16  2.158E-03  0.000E+00


 integration point stresses
                       sigma 11       sigma 12       sigma 31   plastic  eps
    1              1.576135E-01  -3.270918E-03  -5.961529E-04   0.000000E+00
    2              1.576135E-01  -3.271166E-03  -6.070753E-04   0.000000E+00
    3              1.576135E-01  -3.260104E-03  -6.070633E-04   0.000000E+00
    4              1.576135E-01  -3.259856E-03  -5.961409E-04   0.000000E+00


 r e s u l t a n t s   a n d   s t r e s s e s   f o r   t i m e  s t e p     2119   ( at time 4.34846E-01 )


 beam/truss # = 1000000      part ID  =       100      material type=     100

 resultants      axial    shear-s    shear-t    moment-s   moment-t   torsion     pl eps
             1.252E+01  1.858E-01 -2.284E-02  0.000E+00 -1.776E-15  2.163E-03  0.000E+00


 integration point stresses
                       sigma 11       sigma 12       sigma 31   plastic  eps
    1              1.594551E-01   2.360175E-03  -2.853568E-04   0.000000E+00
    2              1.594551E-01   2.359962E-03  -2.963040E-04   0.000000E+00
    3              1.594551E-01   2.371046E-03  -2.962923E-04   0.000000E+00
    4              1.594551E-01   2.371260E-03  -2.853451E-04   0.000000E+00


 r e s u l t a n t s   a n d   s t r e s s e s   f o r   t i m e  s t e p     2144   ( at time 4.39873E-01 )


 beam/truss # = 1000000      part ID  =       100      material type=     100

 resultants      axial    shear-s    shear-t    moment-s   moment-t   torsion     pl eps
             1.267E+01  6.344E-02  3.296E-02 -8.882E-16 -1.776E-15  2.032E-03  0.000E+00


 integration point stresses
                       sigma 11       sigma 12       sigma 31   plastic  eps
    1              1.612983E-01   8.026131E-04   4.248530E-04   0.000000E+00
    2              1.612983E-01   8.023870E-04   4.145767E-04   0.000000E+00
    3              1.612983E-01   8.128037E-04   4.145885E-04   0.000000E+00
    4              1.612983E-01   8.130298E-04   4.248648E-04   0.000000E+00


 r e s u l t a n t s   a n d   s t r e s s e s   f o r   t i m e  s t e p     2169   ( at time 4.44897E-01 )


 beam/truss # = 1000000      part ID  =       100      material type=     100

 resultants      axial    shear-s    shear-t    moment-s   moment-t   torsion     pl eps
             1.281E+01 -3.384E-01  1.795E-02  0.000E+00 -1.776E-15  1.784E-03  0.000E+00


 integration point stresses
                       sigma 11       sigma 12       sigma 31   plastic  eps
    1              1.631405E-01  -4.313076E-03   2.330413E-04   0.000000E+00
    2              1.631405E-01  -4.313331E-03   2.240205E-04   0.000000E+00
    3              1.631405E-01  -4.304178E-03   2.240323E-04   0.000000E+00
    4              1.631405E-01  -4.303923E-03   2.330531E-04   0.000000E+00


 r e s u l t a n t s   a n d   s t r e s s e s   f o r   t i m e  s t e p     2194   ( at time 4.49919E-01 )


 beam/truss # = 1000000      part ID  =       100      material type=     100

 resultants      axial    shear-s    shear-t    moment-s   moment-t   torsion     pl eps
             1.296E+01  8.613E-02 -4.194E-02  1.776E-15  0.000E+00  1.393E-03  0.000E+00


 integration point stresses
                       sigma 11       sigma 12       sigma 31   plastic  eps
    1              1.649823E-01   1.093148E-03  -5.305061E-04   0.000000E+00
    2              1.649823E-01   1.092892E-03  -5.375339E-04   0.000000E+00
    3              1.649823E-01   1.100055E-03  -5.375232E-04   0.000000E+00
    4              1.649823E-01   1.100311E-03  -5.304954E-04   0.000000E+00


 r e s u l t a n t s   a n d   s t r e s s e s   f o r   t i m e  s t e p     2219   ( at time 4.54950E-01 )


 beam/truss # = 1000000      part ID  =       100      material type=     100

 resultants      axial    shear-s    shear-t    moment-s   moment-t   torsion     pl eps
             1.310E+01  8.157E-01 -5.125E-02  1.776E-15 -1.776E-15  8.667E-04  0.000E+00


 integration point stresses
                       sigma 11       sigma 12       sigma 31   plastic  eps
    1              1.668271E-01   1.038310E-02  -6.503335E-04   0.000000E+00
    2              1.668271E-01   1.038284E-02  -6.546718E-04   0.000000E+00
    3              1.668271E-01   1.038733E-02  -6.546613E-04   0.000000E+00
    4              1.668271E-01   1.038759E-02  -6.503231E-04   0.000000E+00


 r e s u l t a n t s   a n d   s t r e s s e s   f o r   t i m e  s t e p     2244   ( at time 4.59978E-01 )


 beam/truss # = 1000000      part ID  =       100      material type=     100

 resultants      axial    shear-s    shear-t    moment-s   moment-t   torsion     pl eps
             1.325E+01  1.078E+00  7.492E-03  1.776E-15 -1.776E-15  2.789E-04  0.000E+00


 integration point stresses
                       sigma 11       sigma 12       sigma 31   plastic  eps
    1              1.686708E-01   1.372232E-02   9.605022E-05   0.000000E+00
    2              1.686708E-01   1.372205E-02   9.470878E-05   0.000000E+00
    3              1.686708E-01   1.372355E-02   9.472134E-05   0.000000E+00
    4              1.686708E-01   1.372382E-02   9.606273E-05   0.000000E+00


 r e s u l t a n t s   a n d   s t r e s s e s   f o r   t i m e  s t e p     2268   ( at time 4.64810E-01 )


 beam/truss # = 1000000      part ID  =       100      material type=     100

 resultants      axial    shear-s    shear-t    moment-s   moment-t   torsion     pl eps
             1.339E+01 -7.884E-02  3.330E-02  0.000E+00 -1.776E-15 -2.872E-04  0.000E+00


 integration point stresses
                       sigma 11       sigma 12       sigma 31   plastic  eps
    1              1.704425E-01  -1.003027E-03   4.231915E-04   0.000000E+00
    2              1.704425E-01  -1.003247E-03   4.247070E-04   0.000000E+00
    3              1.704425E-01  -1.004658E-03   4.247201E-04   0.000000E+00
    4              1.704425E-01  -1.004438E-03   4.232045E-04   0.000000E+00


 r e s u l t a n t s   a n d   s t r e s s e s   f o r   t i m e  s t e p     2293   ( at time 4.69835E-01 )


 beam/truss # = 1000000      part ID  =       100      material type=     100

 resultants      axial    shear-s    shear-t    moment-s   moment-t   torsion     pl eps
             1.353E+01 -6.814E-01  7.037E-03  1.776E-15 -1.776E-15 -7.935E-04  0.000E+00


 integration point stresses
                       sigma 11       sigma 12       sigma 31   plastic  eps
    1              1.722852E-01  -8.673156E-03   8.755402E-05   0.000000E+00
    2              1.722852E-01  -8.673346E-03   9.163678E-05   0.000000E+00
    3              1.722852E-01  -8.677346E-03   9.164800E-05   0.000000E+00
    4              1.722852E-01  -8.677157E-03   8.756516E-05   0.000000E+00


 r e s u l t a n t s   a n d   s t r e s s e s   f o r   t i m e  s t e p     2318   ( at time 4.74858E-01 )


 beam/truss # = 1000000      part ID  =       100      material type=     100

 resultants      axial    shear-s    shear-t    moment-s   moment-t   torsion     pl eps
             1.368E+01  4.689E-02 -1.464E-02  1.776E-15 -1.776E-15 -1.064E-03  0.000E+00


 integration point stresses
                       sigma 11       sigma 12       sigma 31   plastic  eps
    1              1.741269E-01   5.997866E-04  -1.891105E-04   0.000000E+00
    2              1.741269E-01   5.995283E-04  -1.836301E-04   0.000000E+00
    3              1.741269E-01   5.941664E-04  -1.836205E-04   0.000000E+00
    4              1.741269E-01   5.944246E-04  -1.891009E-04   0.000000E+00


 r e s u l t a n t s   a n d   s t r e s s e s   f o r   t i m e  s t e p     2343   ( at time 4.79874E-01 )


 beam/truss # = 1000000      part ID  =       100      material type=     100

 resultants      axial    shear-s    shear-t    moment-s   moment-t   torsion     pl eps
             1.382E+01  8.653E-01  2.089E-02 -1.776E-15 -1.776E-15 -1.018E-03  0.000E+00


 integration point stresses
                       sigma 11       sigma 12       sigma 31   plastic  eps
    1              1.759665E-01   1.102019E-02   2.633290E-04   0.000000E+00
    2              1.759665E-01   1.101984E-02   2.685884E-04   0.000000E+00
    3              1.759665E-01   1.101473E-02   2.685990E-04   0.000000E+00
    4              1.759665E-01   1.101508E-02   2.633395E-04   0.000000E+00


 r e s u l t a n t s   a n d   s t r e s s e s   f o r   t i m e  s t e p     2368   ( at time 4.84899E-01 )


 beam/truss # = 1000000      part ID  =       100      material type=     100

 resultants      axial    shear-s    shear-t    moment-s   moment-t   torsion     pl eps
             1.397E+01  2.158E-01  1.854E-02  0.000E+00 -1.776E-15 -7.106E-04  0.000E+00


 integration point stresses
                       sigma 11       sigma 12       sigma 31   plastic  eps
    1              1.778091E-01   2.749688E-03   2.341673E-04   0.000000E+00
    2              1.778091E-01   2.749406E-03   2.378515E-04   0.000000E+00
    3              1.778091E-01   2.745853E-03   2.378615E-04   0.000000E+00
    4              1.778091E-01   2.746135E-03   2.341772E-04   0.000000E+00


 r e s u l t a n t s   a n d   s t r e s s e s   f o r   t i m e  s t e p     2393   ( at time 4.89922E-01 )


 beam/truss # = 1000000      part ID  =       100      material type=     100

 resultants      axial    shear-s    shear-t    moment-s   moment-t   torsion     pl eps
             1.411E+01 -5.887E-01  9.312E-03  1.776E-15 -1.776E-15 -2.255E-04  0.000E+00


 integration point stresses
                       sigma 11       sigma 12       sigma 31   plastic  eps
    1              1.796509E-01  -7.494927E-03   1.179565E-04   0.000000E+00
    2              1.796509E-01  -7.495141E-03   1.191618E-04   0.000000E+00
    3              1.796509E-01  -7.496231E-03   1.191712E-04   0.000000E+00
    4              1.796509E-01  -7.496018E-03   1.179658E-04   0.000000E+00


 r e s u l t a n t s   a n d   s t r e s s e s   f o r   t i m e  s t e p     2418   ( at time 4.94942E-01 )


 beam/truss # = 1000000      part ID  =       100      material type=     100

 resultants      axial    shear-s    shear-t    moment-s   moment-t   torsion     pl eps
             1.425E+01 -1.465E-01  2.872E-02 -1.776E-15 -1.776E-15  3.645E-04  0.000E+00


 integration point stresses
                       sigma 11       sigma 12       sigma 31   plastic  eps
    1              1.814919E-01  -1.866542E-03   3.665801E-04   0.000000E+00
    2              1.814919E-01  -1.866818E-03   3.647850E-04   0.000000E+00
    3              1.814919E-01  -1.864901E-03   3.647945E-04   0.000000E+00
    4              1.814919E-01  -1.864625E-03   3.665895E-04   0.000000E+00


 r e s u l t a n t s   a n d   s t r e s s e s   f o r   t i m e  s t e p     2443   ( at time 4.99960E-01 )


 beam/truss # = 1000000      part ID  =       100      material type=     100

 resultants      axial    shear-s    shear-t    moment-s   moment-t   torsion     pl eps
             1.440E+01  1.271E-01  3.659E-02 -1.776E-15 -1.776E-15  9.327E-04  0.000E+00


 integration point stresses
                       sigma 11       sigma 12       sigma 31   plastic  eps
    1              1.833318E-01   1.616324E-03   4.681965E-04   0.000000E+00
    2              1.833318E-01   1.616007E-03   4.635092E-04   0.000000E+00
    3              1.833318E-01   1.620821E-03   4.635188E-04   0.000000E+00
    4              1.833318E-01   1.621138E-03   4.682060E-04   0.000000E+00


 r e s u l t a n t s   a n d   s t r e s s e s   f o r   t i m e  s t e p     2468   ( at time 5.04983E-01 )


 beam/truss # = 1000000      part ID  =       100      material type=     100

 resultants      axial    shear-s    shear-t    moment-s   moment-t   torsion     pl eps
             1.454E+01 -4.632E-01 -1.056E-02  1.776E-15 -1.776E-15  1.309E-03  0.000E+00


 integration point stresses
                       sigma 11       sigma 12       sigma 31   plastic  eps
    1              1.851739E-01  -5.901103E-03  -1.311043E-04   0.000000E+00
[...]
    1              2.906189E-01   2.635444E-02  -4.792243E-04   0.000000E+00
    2              2.657021E-01   2.635217E-02  -1.031420E-04   0.000000E+00
    3              2.655687E-01   2.597627E-02  -1.031743E-04   0.000000E+00
    4              2.904855E-01   2.597837E-02  -4.792546E-04   0.000000E+00


 r e s u l t a n t s   a n d   s t r e s s e s   f o r   t i m e  s t e p    24340   ( at time 4.87992E+00 )


 beam/truss # = 1000000      part ID  =       100      material type=     100

 resultants      axial    shear-s    shear-t    moment-s   moment-t   torsion     pl eps
             2.182E+01  2.125E+00  1.266E-02 -8.215E-02  2.415E+00 -1.006E-01  0.000E+00


 integration point stresses
                       sigma 11       sigma 12       sigma 31   plastic  eps
    1              2.896811E-01   2.731096E-02  -9.490401E-05   0.000000E+00
    2              2.650819E-01   2.730881E-02   4.174152E-04   0.000000E+00
    3              2.659187E-01   2.679675E-02   4.173813E-04   0.000000E+00
    4              2.905178E-01   2.679870E-02  -9.493628E-05   0.000000E+00


 r e s u l t a n t s   a n d   s t r e s s e s   f o r   t i m e  s t e p    24365   ( at time 4.88487E+00 )


 beam/truss # = 1000000      part ID  =       100      material type=     100

 resultants      axial    shear-s    shear-t    moment-s   moment-t   torsion     pl eps
             2.188E+01  2.230E+00  2.093E-02 -1.121E-01  2.329E+00 -1.182E-01  0.000E+00


 integration point stresses
                       sigma 11       sigma 12       sigma 31   plastic  eps
    1              2.898986E-01   2.869666E-02  -3.455386E-05   0.000000E+00
    2              2.661792E-01   2.869469E-02   5.676372E-04   0.000000E+00
    3              2.673206E-01   2.809277E-02   5.676028E-04   0.000000E+00
    4              2.910399E-01   2.809453E-02  -3.458717E-05   0.000000E+00


 r e s u l t a n t s   a n d   s t r e s s e s   f o r   t i m e  s t e p    24390   ( at time 4.88984E+00 )


 beam/truss # = 1000000      part ID  =       100      material type=     100

 resultants      axial    shear-s    shear-t    moment-s   moment-t   torsion     pl eps
             2.192E+01  2.363E+00  2.872E-03 -7.171E-02  2.243E+00 -1.233E-01  0.000E+00


 integration point stresses
                       sigma 11       sigma 12       sigma 31   plastic  eps
    1              2.901289E-01   3.039765E-02  -2.773325E-04   0.000000E+00
    2              2.672771E-01   3.039593E-02   3.505061E-04   0.000000E+00
    3              2.680076E-01   2.976832E-02   3.504730E-04   0.000000E+00
    4              2.908594E-01   2.976983E-02  -2.773647E-04   0.000000E+00


 r e s u l t a n t s   a n d   s t r e s s e s   f o r   t i m e  s t e p    24415   ( at time 4.89480E+00 )


 beam/truss # = 1000000      part ID  =       100      material type=     100

 resultants      axial    shear-s    shear-t    moment-s   moment-t   torsion     pl eps
             2.187E+01  2.259E+00 -5.897E-03  2.394E-02  2.191E+00 -1.147E-01  0.000E+00


 integration point stresses
                       sigma 11       sigma 12       sigma 31   plastic  eps
    1              2.897578E-01   2.904940E-02  -3.670849E-04   0.000000E+00
    2              2.674372E-01   2.904750E-02   2.169579E-04   0.000000E+00
    3              2.671934E-01   2.846367E-02   2.169252E-04   0.000000E+00
    4              2.895139E-01   2.846536E-02  -3.671167E-04   0.000000E+00


 r e s u l t a n t s   a n d   s t r e s s e s   f o r   t i m e  s t e p    24441   ( at time 4.89996E+00 )


 beam/truss # = 1000000      part ID  =       100      material type=     100

 resultants      axial    shear-s    shear-t    moment-s   moment-t   torsion     pl eps
             2.186E+01  2.139E+00  3.528E-02  1.516E-01  2.168E+00 -9.325E-02  0.000E+00


 integration point stresses
                       sigma 11       sigma 12       sigma 31   plastic  eps
    1              2.901220E-01   2.747933E-02   2.117608E-04   0.000000E+00
    2              2.680379E-01   2.747723E-02   6.867694E-04   0.000000E+00
    3              2.664934E-01   2.700249E-02   6.867401E-04   0.000000E+00
    4              2.885774E-01   2.700440E-02   2.117319E-04   0.000000E+00


 r e s u l t a n t s   a n d   s t r e s s e s   f o r   t i m e  s t e p    24466   ( at time 4.90492E+00 )


 beam/truss # = 1000000      part ID  =       100      material type=     100

 resultants      axial    shear-s    shear-t    moment-s   moment-t   torsion     pl eps
             2.189E+01  2.134E+00  3.018E-02  2.616E-01  2.170E+00 -6.484E-02  0.000E+00


 integration point stresses
                       sigma 11       sigma 12       sigma 31   plastic  eps
    1              2.910995E-01   2.733454E-02   2.191366E-04   0.000000E+00
    2              2.689987E-01   2.733243E-02   5.494443E-04   0.000000E+00
    3              2.663340E-01   2.700237E-02   5.494153E-04   0.000000E+00
    4              2.884347E-01   2.700432E-02   2.191061E-04   0.000000E+00


 r e s u l t a n t s   a n d   s t r e s s e s   f o r   t i m e  s t e p    24491   ( at time 4.90989E+00 )


 beam/truss # = 1000000      part ID  =       100      material type=     100

 resultants      axial    shear-s    shear-t    moment-s   moment-t   torsion     pl eps
             2.191E+01  2.198E+00  3.332E-02  3.182E-01  2.201E+00 -3.465E-02  0.000E+00


 integration point stresses
                       sigma 11       sigma 12       sigma 31   plastic  eps
    1              2.917922E-01   2.807558E-02   3.359776E-04   0.000000E+00
    2              2.693730E-01   2.807360E-02   5.125140E-04   0.000000E+00
    3              2.661319E-01   2.789733E-02   5.124874E-04   0.000000E+00
    4              2.885509E-01   2.789916E-02   3.359466E-04   0.000000E+00


 r e s u l t a n t s   a n d   s t r e s s e s   f o r   t i m e  s t e p    24516   ( at time 4.91485E+00 )


 beam/truss # = 1000000      part ID  =       100      material type=     100

 resultants      axial    shear-s    shear-t    moment-s   moment-t   torsion     pl eps
             2.186E+01  2.339E+00 -3.943E-02  3.031E-01  2.266E+00 -8.863E-03  0.000E+00


 integration point stresses
                       sigma 11       sigma 12       sigma 31   plastic  eps
    1              2.914061E-01   2.980166E-02  -5.245957E-04   0.000000E+00
    2              2.683246E-01   2.979994E-02  -4.794262E-04   0.000000E+00
    3              2.652368E-01   2.975493E-02  -4.794699E-04   0.000000E+00
    4              2.883182E-01   2.975652E-02  -5.246464E-04   0.000000E+00


 r e s u l t a n t s   a n d   s t r e s s e s   f o r   t i m e  s t e p    24541   ( at time 4.91982E+00 )


 beam/truss # = 1000000      part ID  =       100      material type=     100

 resultants      axial    shear-s    shear-t    moment-s   moment-t   torsion     pl eps
             2.192E+01  2.179E+00  1.077E-02  2.357E-01  2.354E+00  7.444E-03  0.000E+00


 integration point stresses
                       sigma 11       sigma 12       sigma 31   plastic  eps
    1              2.922795E-01   2.772964E-02   1.561290E-04   0.000000E+00
    2              2.683035E-01   2.772765E-02   1.182851E-04   0.000000E+00
    3              2.659027E-01   2.776570E-02   1.182530E-04   0.000000E+00
    4              2.898786E-01   2.776758E-02   1.560885E-04   0.000000E+00


 r e s u l t a n t s   a n d   s t r e s s e s   f o r   t i m e  s t e p    24567   ( at time 4.92497E+00 )


 beam/truss # = 1000000      part ID  =       100      material type=     100

 resultants      axial    shear-s    shear-t    moment-s   moment-t   torsion     pl eps
             2.184E+01  2.133E+00  1.988E-02  1.275E-01  2.444E+00  1.116E-02  0.000E+00


 integration point stresses
                       sigma 11       sigma 12       sigma 31   plastic  eps
    1              2.912035E-01   2.713030E-02   2.814958E-04   0.000000E+00
    2              2.663132E-01   2.712821E-02   2.247506E-04   0.000000E+00
    3              2.650145E-01   2.718517E-02   2.247205E-04   0.000000E+00
    4              2.899048E-01   2.718715E-02   2.814569E-04   0.000000E+00


 r e s u l t a n t s   a n d   s t r e s s e s   f o r   t i m e  s t e p    24592   ( at time 4.92994E+00 )


 beam/truss # = 1000000      part ID  =       100      material type=     100

 resultants      axial    shear-s    shear-t    moment-s   moment-t   torsion     pl eps
             2.189E+01  1.990E+00 -4.433E-03  6.664E-03  2.491E+00  1.486E-03  0.000E+00


 integration point stresses
                       sigma 11       sigma 12       sigma 31   plastic  eps
    1              2.913676E-01   2.533132E-02  -5.267445E-05   0.000000E+00
    2              2.659992E-01   2.532895E-02  -6.018344E-05   0.000000E+00
    3              2.659313E-01   2.533662E-02  -6.021420E-05   0.000000E+00
    4              2.912997E-01   2.533887E-02  -5.271382E-05   0.000000E+00


 r e s u l t a n t s   a n d   s t r e s s e s   f o r   t i m e  s t e p    24617   ( at time 4.93491E+00 )


 beam/truss # = 1000000      part ID  =       100      material type=     100

 resultants      axial    shear-s    shear-t    moment-s   moment-t   torsion     pl eps
             2.186E+01  2.025E+00 -3.716E-02 -8.611E-02  2.465E+00 -1.902E-02  0.000E+00


 integration point stresses
                       sigma 11       sigma 12       sigma 31   plastic  eps
    1              2.904086E-01   2.583215E-02  -5.215131E-04   0.000000E+00
    2              2.652964E-01   2.582983E-02  -4.246381E-04   0.000000E+00
    3              2.661735E-01   2.573305E-02  -4.246684E-04   0.000000E+00
    4              2.912856E-01   2.573523E-02  -5.215523E-04   0.000000E+00


 r e s u l t a n t s   a n d   s t r e s s e s   f o r   t i m e  s t e p    24642   ( at time 4.93988E+00 )


 beam/truss # = 1000000      part ID  =       100      material type=     100

 resultants      axial    shear-s    shear-t    moment-s   moment-t   torsion     pl eps
             2.182E+01  2.043E+00  1.570E-02 -1.088E-01  2.357E+00 -4.601E-02  0.000E+00


 integration point stresses
                       sigma 11       sigma 12       sigma 31   plastic  eps
    1              2.892587E-01   2.612624E-02   8.267431E-05   0.000000E+00
    2              2.652481E-01   2.612394E-02   3.170771E-04   0.000000E+00
    3              2.663564E-01   2.588975E-02   3.170426E-04   0.000000E+00
    4              2.903670E-01   2.589189E-02   8.263009E-05   0.000000E+00


 r e s u l t a n t s   a n d   s t r e s s e s   f o r   t i m e  s t e p    24667   ( at time 4.94485E+00 )


 beam/truss # = 1000000      part ID  =       100      material type=     100

 resultants      axial    shear-s    shear-t    moment-s   moment-t   torsion     pl eps
             2.182E+01  2.143E+00  3.068E-02 -5.706E-02  2.177E+00 -7.392E-02  0.000E+00


 integration point stresses
                       sigma 11       sigma 12       sigma 31   plastic  eps
    1              2.886142E-01   2.747585E-02   2.024280E-04   0.000000E+00
    2              2.664363E-01   2.747372E-02   5.789927E-04   0.000000E+00
    3              2.670175E-01   2.709739E-02   5.789576E-04   0.000000E+00
    4              2.891953E-01   2.709934E-02   2.023822E-04   0.000000E+00


 r e s u l t a n t s   a n d   s t r e s s e s   f o r   t i m e  s t e p    24692   ( at time 4.94982E+00 )


 beam/truss # = 1000000      part ID  =       100      material type=     100

 resultants      axial    shear-s    shear-t    moment-s   moment-t   torsion     pl eps
             2.174E+01  1.965E+00  2.429E-02  4.012E-02  1.958E+00 -9.691E-02  0.000E+00


 integration point stresses
                       sigma 11       sigma 12       sigma 31   plastic  eps
    1              2.869759E-01   2.527346E-02   6.251552E-05   0.000000E+00
    2              2.670339E-01   2.527104E-02   5.561748E-04   0.000000E+00
    3              2.666254E-01   2.477763E-02   5.561388E-04   0.000000E+00
    4              2.865673E-01   2.477984E-02   6.246873E-05   0.000000E+00


 r e s u l t a n t s   a n d   s t r e s s e s   f o r   t i m e  s t e p    24718   ( at time 4.95498E+00 )


 beam/truss # = 1000000      part ID  =       100      material type=     100

 resultants      axial    shear-s    shear-t    moment-s   moment-t   torsion     pl eps
             2.181E+01  1.997E+00 -2.102E-05  1.547E-01  1.750E+00 -1.103E-01  0.000E+00


 integration point stresses
                       sigma 11       sigma 12       sigma 31   plastic  eps
    1              2.874208E-01   2.570663E-02  -2.811466E-04   0.000000E+00
    2              2.695917E-01   2.570423E-02   2.806547E-04   0.000000E+00
    3              2.680156E-01   2.514264E-02   2.806164E-04   0.000000E+00
    4              2.858446E-01   2.514484E-02  -2.811953E-04   0.000000E+00


 r e s u l t a n t s   a n d   s t r e s s e s   f o r   t i m e  s t e p    24743   ( at time 4.95995E+00 )


 beam/truss # = 1000000      part ID  =       100      material type=     100

 resultants      axial    shear-s    shear-t    moment-s   moment-t   torsion     pl eps
             2.177E+01  2.051E+00 -3.409E-03  2.529E-01  1.662E+00 -1.100E-01  0.000E+00


 integration point stresses
                       sigma 11       sigma 12       sigma 31   plastic  eps
    1              2.869056E-01   2.639493E-02  -3.235735E-04   0.000000E+00
    2              2.699729E-01   2.639260E-02   2.368052E-04   0.000000E+00
    3              2.673964E-01   2.583244E-02   2.367659E-04   0.000000E+00
    4              2.843291E-01   2.583457E-02  -3.236231E-04   0.000000E+00


 r e s u l t a n t s   a n d   s t r e s s e s   f o r   t i m e  s t e p    24768   ( at time 4.96492E+00 )


 beam/truss # = 1000000      part ID  =       100      material type=     100

 resultants      axial    shear-s    shear-t    moment-s   moment-t   torsion     pl eps
             2.186E+01  2.320E+00  2.973E-03  3.086E-01  1.749E+00 -9.650E-02  0.000E+00


 integration point stresses
                       sigma 11       sigma 12       sigma 31   plastic  eps
    1              2.888718E-01   2.978502E-02  -2.078909E-04   0.000000E+00
    2              2.710591E-01   2.978307E-02   2.836534E-04   0.000000E+00
    3              2.679158E-01   2.929182E-02   2.836162E-04   0.000000E+00
    4              2.857285E-01   2.929358E-02  -2.079397E-04   0.000000E+00


 r e s u l t a n t s   a n d   s t r e s s e s   f o r   t i m e  s t e p    24793   ( at time 4.96989E+00 )


 beam/truss # = 1000000      part ID  =       100      material type=     100

 resultants      axial    shear-s    shear-t    moment-s   moment-t   torsion     pl eps
             2.181E+01  2.242E+00  7.961E-03  2.947E-01  1.992E+00 -7.232E-02  0.000E+00


 integration point stresses
                       sigma 11       sigma 12       sigma 31   plastic  eps
    1              2.893028E-01   2.872787E-02  -8.280730E-05   0.000000E+00
    2              2.690146E-01   2.872581E-02   2.855699E-04   0.000000E+00
    3              2.660129E-01   2.835771E-02   2.855355E-04   0.000000E+00
    4              2.863011E-01   2.835958E-02  -8.285562E-05   0.000000E+00


 r e s u l t a n t s   a n d   s t r e s s e s   f o r   t i m e  s t e p    24818   ( at time 4.97485E+00 )


 beam/truss # = 1000000      part ID  =       100      material type=     100

 resultants      axial    shear-s    shear-t    moment-s   moment-t   torsion     pl eps
             2.182E+01  2.102E+00  1.667E-03  2.133E-01  2.290E+00 -4.253E-02  0.000E+00


 integration point stresses
                       sigma 11       sigma 12       sigma 31   plastic  eps
    1              2.905339E-01   2.687750E-02  -8.709235E-05   0.000000E+00
    2              2.672040E-01   2.687522E-02   1.295751E-04   0.000000E+00
    3              2.650319E-01   2.665877E-02   1.295403E-04   0.000000E+00
    4              2.883617E-01   2.666089E-02  -8.714358E-05   0.000000E+00


 r e s u l t a n t s   a n d   s t r e s s e s   f o r   t i m e  s t e p    24843   ( at time 4.97980E+00 )


 beam/truss # = 1000000      part ID  =       100      material type=     100

 resultants      axial    shear-s    shear-t    moment-s   moment-t   torsion     pl eps
             2.185E+01  1.866E+00  4.281E-03  9.670E-02  2.518E+00 -1.346E-02  0.000E+00


 integration point stresses
                       sigma 11       sigma 12       sigma 31   plastic  eps
    1              2.915232E-01   2.379713E-02   2.023400E-05   0.000000E+00
    2              2.658708E-01   2.379441E-02   8.881178E-05   0.000000E+00
    3              2.648858E-01   2.372602E-02   8.877914E-05   0.000000E+00
    4              2.905382E-01   2.372860E-02   2.018340E-05   0.000000E+00


 r e s u l t a n t s   a n d   s t r e s s e s   f o r   t i m e  s t e p    24869   ( at time 4.98497E+00 )


 beam/truss # = 1000000      part ID  =       100      material type=     100

 resultants      axial    shear-s    shear-t    moment-s   moment-t   torsion     pl eps
             2.186E+01  1.967E+00  1.302E-03 -1.745E-02  2.588E+00  9.442E-03  0.000E+00


 integration point stresses
                       sigma 11       sigma 12       sigma 31   plastic  eps
    1              2.914797E-01   2.501813E-02   4.063026E-05   0.000000E+00
    2              2.651163E-01   2.501563E-02  -7.420601E-06   0.000000E+00
    3              2.652941E-01   2.506384E-02  -7.453426E-06   0.000000E+00
    4              2.916574E-01   2.506623E-02   4.057914E-05   0.000000E+00


 r e s u l t a n t s   a n d   s t r e s s e s   f o r   t i m e  s t e p    24894   ( at time 4.98996E+00 )


 beam/truss # = 1000000      part ID  =       100      material type=     100

 resultants      axial    shear-s    shear-t    moment-s   moment-t   torsion     pl eps
             2.187E+01  1.939E+00  1.036E-02 -8.767E-02  2.472E+00  1.944E-02  0.000E+00


 integration point stresses
                       sigma 11       sigma 12       sigma 31   plastic  eps
    1              2.906143E-01   2.463418E-02   1.814072E-04   0.000000E+00
    2              2.654377E-01   2.463161E-02   8.244207E-05   0.000000E+00
    3              2.663307E-01   2.473076E-02   8.240900E-05   0.000000E+00
    4              2.915072E-01   2.473322E-02   1.813560E-04   0.000000E+00


 r e s u l t a n t s   a n d   s t r e s s e s   f o r   t i m e  s t e p    24919   ( at time 4.99494E+00 )


 beam/truss # = 1000000      part ID  =       100      material type=     100

 resultants      axial    shear-s    shear-t    moment-s   moment-t   torsion     pl eps
             2.181E+01  2.014E+00  5.987E-03 -9.917E-02  2.216E+00  1.559E-02  0.000E+00


 integration point stresses
                       sigma 11       sigma 12       sigma 31   plastic  eps
    1              2.884958E-01   2.560719E-02   1.159181E-04   0.000000E+00
    2              2.659288E-01   2.560476E-02   3.658753E-05   0.000000E+00
    3              2.669390E-01   2.568425E-02   3.655489E-05   0.000000E+00
    4              2.895059E-01   2.568657E-02   1.158672E-04   0.000000E+00


 r e s u l t a n t s   a n d   s t r e s s e s   f o r   t i m e  s t e p    24944   ( at time 4.99989E+00 )


 beam/truss # = 1000000      part ID  =       100      material type=     100

 resultants      axial    shear-s    shear-t    moment-s   moment-t   torsion     pl eps
             2.187E+01  2.014E+00  1.542E-03 -4.503E-02  1.909E+00 -8.961E-04  0.000E+00


 integration point stresses
                       sigma 11       sigma 12       sigma 31   plastic  eps
    1              2.879081E-01   2.564254E-02   1.734158E-05   0.000000E+00
    2              2.684663E-01   2.564009E-02   2.196829E-05   0.000000E+00
    3              2.689250E-01   2.563563E-02   2.193577E-05   0.000000E+00
    4              2.883668E-01   2.563796E-02   1.729040E-05   0.000000E+00
