 Bolted Connection Type b                                                
                    ls-dyna smp d R13 R13.1.1_27_8731a0 date 07/28/2023


 dt of cycle       1 is controlled by solid         100449 of part        10

 time...........................   0.00000E+00
 time step......................   2.11870E-04
 kinetic energy.................   0.00000E+00
 internal energy................   2.00000E-20
 spring and damper energy.......   1.00000E-20
 hourglass energy ..............   0.00000E+00
 system damping energy..........   0.00000E+00
 sliding interface energy.......   0.00000E+00
 external work..................   0.00000E+00
 eroded kinetic energy..........   0.00000E+00
 eroded internal energy.........   0.00000E+00
 eroded hourglass energy........   0.00000E+00
 total energy...................   2.00000E-20
 total energy / initial energy..   1.00000E+00
 energy ratio w/o eroded energy.   1.00000E+00
 global x velocity..............   0.00000E+00
 global y velocity..............   0.00000E+00
 global z velocity..............   0.00000E+00
 time per zone cycle.(nanosec)..             0


 dt of cycle      24 is controlled by solid         100449 of part        10

 time...........................   4.87301E-03
 time step......................   2.11870E-04
 kinetic energy.................   9.93442E-06
 internal energy................   1.36945E-05
 spring and damper energy.......   1.00000E-20
 hourglass energy ..............   0.00000E+00
 system damping energy..........   0.00000E+00
 sliding interface energy.......   0.00000E+00
 external work..................   0.00000E+00
 eroded kinetic energy..........   0.00000E+00
 eroded internal energy.........   0.00000E+00
 eroded hourglass energy........   0.00000E+00
 total energy...................   2.36289E-05
 total energy / initial energy..   1.00000E+00
 energy ratio w/o eroded energy.   1.00000E+00
 global x velocity..............   4.24142E-24
 global y velocity..............   1.11186E-18
 global z velocity..............   8.48284E-24
 time per zone cycle.(nanosec)..             0


 dt of cycle      48 is controlled by solid         100449 of part        10

 time...........................   9.95789E-03
 time step......................   2.11870E-04
 kinetic energy.................   1.07716E-04
 internal energy................   1.92573E-04
 spring and damper energy.......   1.00000E-20
 hourglass energy ..............   0.00000E+00
 system damping energy..........   0.00000E+00
 sliding interface energy.......   0.00000E+00
 external work..................   0.00000E+00
 eroded kinetic energy..........   0.00000E+00
 eroded internal energy.........   0.00000E+00
 eroded hourglass energy........   0.00000E+00
 total energy...................   3.00289E-04
 total energy / initial energy..   1.00000E+00
 energy ratio w/o eroded energy.   1.00000E+00
 global x velocity..............   1.00734E-23
 global y velocity..............   1.66779E-18
 global z velocity..............   1.27243E-23
 time per zone cycle.(nanosec)..             0


 dt of cycle      71 is controlled by solid         100449 of part        10

 time...........................   1.48309E-02
 time step......................   2.11870E-04
 kinetic energy.................   4.93215E-04
 internal energy................   6.25292E-04
 spring and damper energy.......   1.00000E-20
 hourglass energy ..............   0.00000E+00
 system damping energy..........   0.00000E+00
 sliding interface energy.......   0.00000E+00
 external work..................   0.00000E+00
 eroded kinetic energy..........   0.00000E+00
 eroded internal energy.........   0.00000E+00
 eroded hourglass energy........   0.00000E+00
 total energy...................   1.11851E-03
 total energy / initial energy..   1.00000E+00
 energy ratio w/o eroded energy.   1.00000E+00
 global x velocity..............   2.12071E-23
 global y velocity..............   5.55931E-18
 global z velocity..............   0.00000E+00
 time per zone cycle.(nanosec)..             0


 dt of cycle      95 is controlled by solid         100449 of part        10

 time...........................   1.99158E-02
 time step......................   2.11870E-04
 kinetic energy.................   1.60546E-03
 internal energy................   1.62298E-03
 spring and damper energy.......   1.00000E-20
 hourglass energy ..............   0.00000E+00
 system damping energy..........   0.00000E+00
 sliding interface energy.......   0.00000E+00
 external work..................   0.00000E+00
 eroded kinetic energy..........   0.00000E+00
 eroded internal energy.........   0.00000E+00
 eroded hourglass energy........   0.00000E+00
 total energy...................   3.22843E-03
 total energy / initial energy..   1.00000E+00
 energy ratio w/o eroded energy.   1.00000E+00
 global x velocity..............  -1.06036E-24
 global y velocity..............   2.00135E-17
 global z velocity..............  -4.24142E-23
 time per zone cycle.(nanosec)..             0


 dt of cycle     118 is controlled by solid         100449 of part        10

 time...........................   2.47888E-02
 time step......................   2.11870E-04
 kinetic energy.................   3.85848E-03
 internal energy................   3.72092E-03
 spring and damper energy.......   1.00000E-20
 hourglass energy ..............   0.00000E+00
 system damping energy..........   0.00000E+00
 sliding interface energy.......   0.00000E+00
 external work..................   0.00000E+00
 eroded kinetic energy..........   0.00000E+00
 eroded internal energy.........   0.00000E+00
 eroded hourglass energy........   0.00000E+00
 total energy...................   7.57940E-03
 total energy / initial energy..   1.00000E+00
 energy ratio w/o eroded energy.   1.00000E+00
 global x velocity..............   1.96166E-23
 global y velocity..............   1.11186E-17
 global z velocity..............   3.39314E-23
 time per zone cycle.(nanosec)..             0


 dt of cycle     142 is controlled by solid         100449 of part        10

 time...........................   2.98737E-02
 time step......................   2.11870E-04
 kinetic energy.................   8.11900E-03
 internal energy................   7.39066E-03
 spring and damper energy.......   1.00000E-20
 hourglass energy ..............   0.00000E+00
 system damping energy..........   0.00000E+00
 sliding interface energy.......   0.00000E+00
 external work..................   0.00000E+00
 eroded kinetic energy..........   0.00000E+00
 eroded internal energy.........   0.00000E+00
 eroded hourglass energy........   0.00000E+00
 total energy...................   1.55097E-02
 total energy / initial energy..   1.00000E+00
 energy ratio w/o eroded energy.   1.00000E+00
 global x velocity..............  -1.27243E-23
 global y velocity..............   1.33424E-17
 global z velocity..............   0.00000E+00
 time per zone cycle.(nanosec)..             0


 dt of cycle     166 is controlled by solid         100449 of part        10

 time...........................   3.49586E-02
 time step......................   2.11870E-04
 kinetic energy.................   1.52246E-02
 internal energy................   1.29124E-02
 spring and damper energy.......   1.00000E-20
 hourglass energy ..............   0.00000E+00
 system damping energy..........   0.00000E+00
 sliding interface energy.......   0.00000E+00
 external work..................   0.00000E+00
 eroded kinetic energy..........   0.00000E+00
 eroded internal energy.........   0.00000E+00
 eroded hourglass energy........   0.00000E+00
 total energy...................   2.81370E-02
 total energy / initial energy..   1.00000E+00
 energy ratio w/o eroded energy.   1.00000E+00
 global x velocity..............   7.21041E-23
 global y velocity..............   3.11322E-17
 global z velocity..............   0.00000E+00
 time per zone cycle.(nanosec)..             0


 dt of cycle     189 is controlled by solid         100449 of part        10

 time...........................   3.98316E-02
 time step......................   2.11870E-04
 kinetic energy.................   2.56677E-02
 internal energy................   2.08757E-02
 spring and damper energy.......   1.00000E-20
 hourglass energy ..............   0.00000E+00
 system damping energy..........   0.00000E+00
 sliding interface energy.......   0.00000E+00
 external work..................   0.00000E+00
 eroded kinetic energy..........   0.00000E+00
 eroded internal energy.........   0.00000E+00
 eroded hourglass energy........   0.00000E+00
 total energy...................   4.65434E-02
 total energy / initial energy..   1.00000E+00
 energy ratio w/o eroded energy.   1.00000E+00
 global x velocity..............   1.39967E-22
 global y velocity..............  -1.77898E-17
 global z velocity..............   1.01794E-22
 time per zone cycle.(nanosec)..             0


 dt of cycle     213 is controlled by solid         100449 of part        10

 time...........................   4.49164E-02
 time step......................   2.11870E-04
 kinetic energy.................   4.14916E-02
 internal energy................   3.24131E-02
 spring and damper energy.......   1.00000E-20
 hourglass energy ..............   0.00000E+00
 system damping energy..........   0.00000E+00
 sliding interface energy.......   0.00000E+00
 external work..................   0.00000E+00
 eroded kinetic energy..........   0.00000E+00
 eroded internal energy.........   0.00000E+00
 eroded hourglass energy........   0.00000E+00
 total energy...................   7.39048E-02
 total energy / initial energy..   1.00000E+00
 energy ratio w/o eroded energy.   1.00000E+00
 global x velocity..............   6.36213E-23
 global y velocity..............   1.77898E-17
 global z velocity..............   1.18760E-22
 time per zone cycle.(nanosec)..             0


 dt of cycle     236 is controlled by solid         100449 of part        10

 time...........................   4.97895E-02
 time step......................   2.11870E-04
 kinetic energy.................   6.26425E-02
 internal energy................   4.66709E-02
 spring and damper energy.......   1.00000E-20
 hourglass energy ..............   0.00000E+00
 system damping energy..........   0.00000E+00
 sliding interface energy.......   0.00000E+00
 external work..................   0.00000E+00
 eroded kinetic energy..........   0.00000E+00
 eroded internal energy.........   0.00000E+00
 eroded hourglass energy........   0.00000E+00
 total energy...................   1.09313E-01
 total energy / initial energy..   1.00000E+00
 energy ratio w/o eroded energy.   1.00000E+00
 global x velocity..............   4.24142E-23
 global y velocity..............   6.22643E-17
 global z velocity..............   1.35725E-22
 time per zone cycle.(nanosec)..             0


 dt of cycle     260 is controlled by solid         100449 of part        10

 time...........................   5.48743E-02
 time step......................   2.11870E-04
 kinetic energy.................   9.24339E-02
 internal energy................   6.58510E-02
 spring and damper energy.......   1.00000E-20
 hourglass energy ..............   0.00000E+00
 system damping energy..........   0.00000E+00
 sliding interface energy.......   0.00000E+00
 external work..................   0.00000E+00
 eroded kinetic energy..........   0.00000E+00
 eroded internal energy.........   0.00000E+00
 eroded hourglass energy........   0.00000E+00
 total energy...................   1.58285E-01
 total energy / initial energy..   1.00000E+00
 energy ratio w/o eroded energy.   1.00000E+00
 global x velocity..............   5.72592E-23
 global y velocity..............  -7.11592E-17
 global z velocity..............   8.48284E-24
 time per zone cycle.(nanosec)..             0


 dt of cycle     284 is controlled by solid         100449 of part        10

 time...........................   5.99592E-02
 time step......................   2.11870E-04
 kinetic energy.................   1.31752E-01
 internal energy................   8.99763E-02
 spring and damper energy.......   1.00000E-20
 hourglass energy ..............   0.00000E+00
 system damping energy..........   0.00000E+00
 sliding interface energy.......   0.00000E+00
 external work..................   0.00000E+00
 eroded kinetic energy..........   0.00000E+00
 eroded internal energy.........   0.00000E+00
 eroded hourglass energy........   0.00000E+00
 total energy...................   2.21728E-01
 total energy / initial energy..   1.00000E+00
 energy ratio w/o eroded energy.   1.00000E+00
 global x velocity..............  -2.52364E-22
 global y velocity..............   5.33694E-17
 global z velocity..............  -9.33112E-23
 time per zone cycle.(nanosec)..             0


 dt of cycle     307 is controlled by solid         100449 of part        10

 time...........................   6.48322E-02
 time step......................   2.11870E-04
 kinetic energy.................   1.80087E-01
 internal energy................   1.17507E-01
 spring and damper energy.......   1.00000E-20
 hourglass energy ..............   0.00000E+00
 system damping energy..........   0.00000E+00
 sliding interface energy.......   0.00000E+00
 external work..................   0.00000E+00
 eroded kinetic energy..........   0.00000E+00
 eroded internal energy.........   0.00000E+00
 eroded hourglass energy........   0.00000E+00
 total energy...................   2.97595E-01
 total energy / initial energy..   1.00000E+00
 energy ratio w/o eroded energy.   1.00000E+00
 global x velocity..............  -6.41515E-22
 global y velocity..............  -2.13478E-16
 global z velocity..............  -7.16800E-22
 time per zone cycle.(nanosec)..             0


 dt of cycle     331 is controlled by solid         100449 of part        10

 time...........................   6.99171E-02
 time step......................   2.11870E-04
 kinetic energy.................   2.43591E-01
 internal energy................   1.51387E-01
 spring and damper energy.......   1.00000E-20
 hourglass energy ..............   0.00000E+00
 system damping energy..........   0.00000E+00
 sliding interface energy.......   0.00000E+00
 external work..................   0.00000E+00
 eroded kinetic energy..........   0.00000E+00
 eroded internal energy.........   0.00000E+00
 eroded hourglass energy........   0.00000E+00
 total energy...................   3.94978E-01
 total energy / initial energy..   1.00000E+00
 energy ratio w/o eroded energy.   1.00000E+00
 global x velocity..............  -5.70471E-22
 global y velocity..............  -1.24529E-16
 global z velocity..............  -8.29198E-22
 time per zone cycle.(nanosec)..             0


 dt of cycle     354 is controlled by solid         100449 of part        10

 time...........................   7.47901E-02
 time step......................   2.11870E-04
 kinetic energy.................   3.18938E-01
 internal energy................   1.90489E-01
 spring and damper energy.......   1.00000E-20
 hourglass energy ..............   0.00000E+00
 system damping energy..........   0.00000E+00
 sliding interface energy.......   0.00000E+00
 external work..................   0.00000E+00
 eroded kinetic energy..........   0.00000E+00
 eroded internal energy.........   0.00000E+00
 eroded hourglass energy........   0.00000E+00
 total energy...................   5.09427E-01
 total energy / initial energy..   1.00000E+00
 energy ratio w/o eroded energy.   1.00000E+00
 global x velocity..............  -5.17453E-22
 global y velocity..............   3.55796E-17
 global z velocity..............  -1.64885E-22
 time per zone cycle.(nanosec)..             0


 dt of cycle     378 is controlled by solid         100449 of part        10

 time...........................   7.98750E-02
 time step......................   2.11870E-04
 kinetic energy.................   4.14919E-01
 internal energy................   2.42757E-01
 spring and damper energy.......   1.00000E-20
 hourglass energy ..............   0.00000E+00
 system damping energy..........   0.00000E+00
 sliding interface energy.......   0.00000E+00
 external work..................   0.00000E+00
 eroded kinetic energy..........   0.00000E+00
 eroded internal energy.........   0.00000E+00
 eroded hourglass energy........   0.00000E+00
 total energy...................   6.57676E-01
 total energy / initial energy..   1.00000E+00
 energy ratio w/o eroded energy.   1.00000E+00
 global x velocity..............  -1.26394E-21
 global y velocity..............  -7.11592E-17
 global z velocity..............   3.39314E-23
 time per zone cycle.(nanosec)..             0


 dt of cycle     402 is controlled by solid         100449 of part        10

 time...........................   8.49599E-02
 time step......................   2.11870E-04
 kinetic energy.................   5.31101E-01
 internal energy................   3.09903E-01
 spring and damper energy.......   1.00000E-20
 hourglass energy ..............   0.00000E+00
 system damping energy..........   0.00000E+00
 sliding interface energy.......   0.00000E+00
 external work..................   0.00000E+00
 eroded kinetic energy..........   0.00000E+00
 eroded internal energy.........   0.00000E+00
 eroded hourglass energy........   0.00000E+00
 total energy...................   8.41003E-01
 total energy / initial energy..   1.00000E+00
 energy ratio w/o eroded energy.   1.00000E+00
 global x velocity..............  -1.00946E-21
 global y velocity..............  -7.11592E-17
 global z velocity..............  -3.64762E-22
 time per zone cycle.(nanosec)..             0


 dt of cycle     425 is controlled by solid         100449 of part        10

 time...........................   8.98329E-02
 time step......................   2.11870E-04
 kinetic energy.................   6.63845E-01
 internal energy................   3.92482E-01
 spring and damper energy.......   1.00000E-20
 hourglass energy ..............   0.00000E+00
 system damping energy..........   0.00000E+00
 sliding interface energy.......   0.00000E+00
 external work..................   0.00000E+00
 eroded kinetic energy..........   0.00000E+00
 eroded internal energy.........   0.00000E+00
 eroded hourglass energy........   0.00000E+00
 total energy...................   1.05633E+00
 total energy / initial energy..   1.00000E+00
 energy ratio w/o eroded energy.   1.00000E+00
 global x velocity..............  -1.18548E-21
 global y velocity..............  -4.62535E-16
 global z velocity..............   3.51243E-23
 time per zone cycle.(nanosec)..             0


 dt of cycle     449 is controlled by solid         100449 of part        10

 time...........................   9.49178E-02
 time step......................   2.11870E-04
 kinetic energy.................   8.27389E-01
 internal energy................   5.00014E-01
 spring and damper energy.......   1.00000E-20
 hourglass energy ..............   0.00000E+00
 system damping energy..........   0.00000E+00
 sliding interface energy.......   0.00000E+00
 external work..................   0.00000E+00
 eroded kinetic energy..........   0.00000E+00
 eroded internal energy.........   0.00000E+00
 eroded hourglass energy........   0.00000E+00
 total energy...................   1.32740E+00
 total energy / initial energy..   1.00000E+00
 energy ratio w/o eroded energy.   1.00000E+00
 global x velocity..............  -1.11973E-21
 global y velocity..............   7.11592E-17
 global z velocity..............  -1.57781E-21
 time per zone cycle.(nanosec)..             0


 dt of cycle     472 is controlled by solid         100449 of part        10

 time...........................   9.97908E-02
 time step......................   2.11870E-04
 kinetic energy.................   1.01084E+00
 internal energy................   6.26698E-01
 spring and damper energy.......   1.00000E-20
 hourglass energy ..............   0.00000E+00
 system damping energy..........   0.00000E+00
 sliding interface energy.......   0.00000E+00
 external work..................   0.00000E+00
 eroded kinetic energy..........   0.00000E+00
 eroded internal energy.........   0.00000E+00
 eroded hourglass energy........   0.00000E+00
 total energy...................   1.63754E+00
 total energy / initial energy..   1.00000E+00
 energy ratio w/o eroded energy.   1.00000E+00
 global x velocity..............  -3.18107E-22
 global y velocity..............   0.00000E+00
 global z velocity..............  -1.97650E-21
 time per zone cycle.(nanosec)..             0


 dt of cycle     496 is controlled by solid         100449 of part        10

 time...........................   1.04876E-01
 time step......................   2.11870E-04
 kinetic energy.................   1.23317E+00
 internal energy................   7.90066E-01
 spring and damper energy.......   1.00000E-20
 hourglass energy ..............   0.00000E+00
 system damping energy..........   0.00000E+00
 sliding interface energy.......   0.00000E+00
 external work..................   0.00000E+00
 eroded kinetic energy..........   0.00000E+00
 eroded internal energy.........   0.00000E+00
 eroded hourglass energy........   0.00000E+00
 total energy...................   2.02323E+00
 total energy / initial energy..   1.00000E+00
 energy ratio w/o eroded energy.   1.00000E+00
 global x velocity..............  -3.90211E-22
 global y velocity..............  -2.13478E-16
 global z velocity..............  -1.31590E-21
 time per zone cycle.(nanosec)..             0


 dt of cycle     520 is controlled by solid         100449 of part        10

 time...........................   1.09961E-01
 time step......................   2.11870E-04
 kinetic energy.................   1.49028E+00
 internal energy................   9.89762E-01
 spring and damper energy.......   1.00000E-20
 hourglass energy ..............   0.00000E+00
 system damping energy..........   0.00000E+00
 sliding interface energy.......   0.00000E+00
 external work..................   0.00000E+00
 eroded kinetic energy..........   0.00000E+00
 eroded internal energy.........   0.00000E+00
 eroded hourglass energy........   0.00000E+00
 total energy...................   2.48004E+00
 total energy / initial energy..   1.00000E+00
 energy ratio w/o eroded energy.   1.00000E+00
 global x velocity..............  -1.21941E-21
 global y velocity..............   1.42318E-16
 global z velocity..............  -1.14942E-21
 time per zone cycle.(nanosec)..             0


 dt of cycle     543 is controlled by solid         100449 of part        10

 time...........................   1.14834E-01
 time step......................   2.11870E-04
 kinetic energy.................   1.77253E+00
 internal energy................   1.21912E+00
 spring and damper energy.......   1.00000E-20
 hourglass energy ..............   0.00000E+00
 system damping energy..........   0.00000E+00
 sliding interface energy.......   0.00000E+00
 external work..................   0.00000E+00
 eroded kinetic energy..........   0.00000E+00
 eroded internal energy.........   0.00000E+00
 eroded hourglass energy........   0.00000E+00
 total energy...................   2.99166E+00
 total energy / initial energy..   1.00000E+00
 energy ratio w/o eroded energy.   1.00000E+00
 global x velocity..............  -1.88319E-21
 global y velocity..............   7.11592E-17
 global z velocity..............  -1.09641E-21
 time per zone cycle.(nanosec)..             0


 dt of cycle     567 is controlled by solid         100449 of part        10

 time...........................   1.19918E-01
 time step......................   2.11870E-04
 kinetic energy.................   2.10797E+00
 internal energy................   1.50683E+00
 spring and damper energy.......   1.00000E-20
 hourglass energy ..............   0.00000E+00
 system damping energy..........   0.00000E+00
 sliding interface energy.......   0.00000E+00
 external work..................   0.00000E+00
 eroded kinetic energy..........   0.00000E+00
 eroded internal energy.........   0.00000E+00
 eroded hourglass energy........   0.00000E+00
 total energy...................   3.61480E+00
 total energy / initial energy..   1.00000E+00
 energy ratio w/o eroded energy.   1.00000E+00
 global x velocity..............  -1.83653E-21
 global y velocity..............   2.13478E-16
 global z velocity..............   8.30656E-22
 time per zone cycle.(nanosec)..             0


 dt of cycle     590 is controlled by solid         100449 of part        10

 time...........................   1.24791E-01
 time step......................   2.11870E-04
 kinetic energy.................   2.47206E+00
 internal energy................   1.83602E+00
 spring and damper energy.......   1.00000E-20
 hourglass energy ..............   0.00000E+00
 system damping energy..........   0.00000E+00
 sliding interface energy.......   0.00000E+00
 external work..................   0.00000E+00
 eroded kinetic energy..........   0.00000E+00
 eroded internal energy.........   0.00000E+00
 eroded hourglass energy........   0.00000E+00
 total energy...................   4.30808E+00
 total energy / initial energy..   1.00000E+00
 energy ratio w/o eroded energy.   1.00000E+00
 global x velocity..............  -2.50244E-21
 global y velocity..............  -3.55796E-16
 global z velocity..............   1.82381E-22
 time per zone cycle.(nanosec)..             0


 dt of cycle     614 is controlled by solid         100449 of part        10

 time...........................   1.29876E-01
 time step......................   2.11870E-04
 kinetic energy.................   2.90028E+00
 internal energy................   2.24068E+00
 spring and damper energy.......   1.00000E-20
 hourglass energy ..............   0.00000E+00
 system damping energy..........   0.00000E+00
 sliding interface energy.......   0.00000E+00
 external work..................   0.00000E+00
 eroded kinetic energy..........   0.00000E+00
 eroded internal energy.........   0.00000E+00
 eroded hourglass energy........   0.00000E+00
 total energy...................   5.14096E+00
 total energy / initial energy..   1.00000E+00
 energy ratio w/o eroded energy.   1.00000E+00
 global x velocity..............  -3.45252E-21
 global y velocity..............   3.55796E-16
 global z velocity..............   1.10091E-21
 time per zone cycle.(nanosec)..             0


 dt of cycle     638 is controlled by solid         100449 of part        10

 time...........................   1.34961E-01
 time step......................   2.11870E-04
 kinetic energy.................   3.38186E+00
 internal energy................   2.71901E+00
 spring and damper energy.......   1.00000E-20
 hourglass energy ..............   0.00000E+00
 system damping energy..........   0.00000E+00
 sliding interface energy.......   0.00000E+00
 external work..................   0.00000E+00
 eroded kinetic energy..........   0.00000E+00
 eroded internal energy.........   0.00000E+00
 eroded hourglass energy........   0.00000E+00
 total energy...................   6.10087E+00
 total energy / initial energy..   1.00000E+00
 energy ratio w/o eroded energy.   1.00000E+00
 global x velocity..............  -2.99444E-21
 global y velocity..............  -7.82751E-16
 global z velocity..............  -9.79768E-22
 time per zone cycle.(nanosec)..             0


 dt of cycle     661 is controlled by solid         100449 of part        10

 time...........................   1.39834E-01
 time step......................   2.11870E-04
 kinetic energy.................   3.89739E+00
 internal energy................   3.25803E+00
 spring and damper energy.......   1.00000E-20
 hourglass energy ..............   0.00000E+00
 system damping energy..........   0.00000E+00
 sliding interface energy.......   0.00000E+00
 external work..................   0.00000E+00
 eroded kinetic energy..........   0.00000E+00
 eroded internal energy.........   0.00000E+00
 eroded hourglass energy........   0.00000E+00
 total energy...................   7.15542E+00
 total energy / initial energy..   1.00000E+00
 energy ratio w/o eroded energy.   1.00000E+00
 global x velocity..............  -1.39967E-21
 global y velocity..............   7.11592E-17
 global z velocity..............  -3.40321E-21
 time per zone cycle.(nanosec)..             0


 dt of cycle     685 is controlled by solid         100449 of part        10

 time...........................   1.44919E-01
 time step......................   2.11870E-04
 kinetic energy.................   4.49595E+00
 internal energy................   3.91250E+00
 spring and damper energy.......   1.00000E-20
 hourglass energy ..............   0.00000E+00
 system damping energy..........   0.00000E+00
 sliding interface energy.......   0.00000E+00
 external work..................   0.00000E+00
 eroded kinetic energy..........   0.00000E+00
 eroded internal energy.........   0.00000E+00
 eroded hourglass energy........   0.00000E+00
 total energy...................   8.40846E+00
 total energy / initial energy..   1.00000E+00
 energy ratio w/o eroded energy.   1.00000E+00
 global x velocity..............  -1.56084E-21
 global y velocity..............   0.00000E+00
 global z velocity..............  -4.26687E-21
 time per zone cycle.(nanosec)..             0


 dt of cycle     708 is controlled by solid         100449 of part        10

 time...........................   1.49792E-01
 time step......................   2.11870E-04
 kinetic energy.................   5.13187E+00
 internal energy................   4.64062E+00
 spring and damper energy.......   1.00000E-20
 hourglass energy ..............   0.00000E+00
 system damping energy..........   0.00000E+00
 sliding interface energy.......   0.00000E+00
 external work..................   0.00000E+00
 eroded kinetic energy..........   0.00000E+00
 eroded internal energy.........   0.00000E+00
 eroded hourglass energy........   0.00000E+00
 total energy...................   9.77248E+00
 total energy / initial energy..   1.00000E+00
 energy ratio w/o eroded energy.   1.00000E+00
 global x velocity..............  -3.42707E-21
 global y velocity..............   0.00000E+00
 global z velocity..............  -5.09395E-21
 time per zone cycle.(nanosec)..             0


 dt of cycle     732 is controlled by solid         100449 of part        10

 time...........................   1.54877E-01
 time step......................   2.11870E-04
 kinetic energy.................   5.86499E+00
 internal energy................   5.52360E+00
 spring and damper energy.......   1.00000E-20
 hourglass energy ..............   0.00000E+00
 system damping energy..........   0.00000E+00
 sliding interface energy.......   0.00000E+00
 external work..................   0.00000E+00
 eroded kinetic energy..........   0.00000E+00
 eroded internal energy.........   0.00000E+00
 eroded hourglass energy........   0.00000E+00
 total energy...................   1.13886E+01
 total energy / initial energy..   1.00000E+00
 energy ratio w/o eroded energy.   1.00000E+00
 global x velocity..............  -2.42609E-21
 global y velocity..............   1.42318E-16
 global z velocity..............  -6.27505E-21
 time per zone cycle.(nanosec)..             0


 dt of cycle     756 is controlled by solid         100449 of part        10

 time...........................   1.59962E-01
 time step......................   2.11870E-04
 kinetic energy.................   6.67399E+00
 internal energy................   6.54536E+00
 spring and damper energy.......   1.00000E-20
 hourglass energy ..............   0.00000E+00
 system damping energy..........   0.00000E+00
 sliding interface energy.......   0.00000E+00
 external work..................   0.00000E+00
 eroded kinetic energy..........   0.00000E+00
 eroded internal energy.........   0.00000E+00
 eroded hourglass energy........   0.00000E+00
 total energy...................   1.32193E+01
 total energy / initial energy..   1.00000E+00
 energy ratio w/o eroded energy.   1.00000E+00
 global x velocity..............  -2.12071E-22
 global y velocity..............   9.96229E-16
 global z velocity..............  -9.21661E-21
 time per zone cycle.(nanosec)..             0


 dt of cycle     779 is controlled by solid         100246 of part        10

 time...........................   1.64834E-01
 time step......................   2.11725E-04
 kinetic energy.................   6.81229E+00
 internal energy................   7.73365E+00
 spring and damper energy.......   1.00000E-20
 hourglass energy ..............   0.00000E+00
 system damping energy..........   0.00000E+00
 sliding interface energy.......   6.48259E-01
 external work..................   0.00000E+00
 eroded kinetic energy..........   0.00000E+00
 eroded internal energy.........   0.00000E+00
 eroded hourglass energy........   0.00000E+00
 total energy...................   1.51942E+01
 total energy / initial energy..   1.00000E+00
 energy ratio w/o eroded energy.   1.00000E+00
 global x velocity..............   2.77966E-18
 global y velocity..............   6.40433E-16
 global z velocity..............   0.00000E+00
 time per zone cycle.(nanosec)..             0


 dt of cycle     803 is controlled by solid         100353 of part        10

 time...........................   1.69914E-01
 time step......................   2.11694E-04
 kinetic energy.................   6.86007E+00
 internal energy................   9.65202E+00
 spring and damper energy.......   1.00000E-20
 hourglass energy ..............   0.00000E+00
 system damping energy..........   0.00000E+00
 sliding interface energy.......   7.86641E-01
 external work..................   0.00000E+00
 eroded kinetic energy..........   0.00000E+00
 eroded internal energy.........   0.00000E+00
 eroded hourglass energy........   0.00000E+00
 total energy...................   1.72987E+01
 total energy / initial energy..   1.00000E+00
 energy ratio w/o eroded energy.   1.00000E+00
 global x velocity..............   6.36281E-05
 global y velocity..............   2.53978E-05
 global z velocity..............  -6.78521E-11
 time per zone cycle.(nanosec)..             0


 dt of cycle     827 is controlled by solid         100638 of part        10

 time...........................   1.74975E-01
 time step......................   2.09427E-04
 kinetic energy.................   6.01783E+00
 internal energy................   1.17111E+01
 spring and damper energy.......   1.00000E-20
 hourglass energy ..............   0.00000E+00
 system damping energy..........   0.00000E+00
 sliding interface energy.......   1.25942E+00
 external work..................   0.00000E+00
 eroded kinetic energy..........   0.00000E+00
 eroded internal energy.........   0.00000E+00
 eroded hourglass energy........   0.00000E+00
 total energy...................   1.89883E+01
 total energy / initial energy..   1.00000E+00
 energy ratio w/o eroded energy.   1.00000E+00
 global x velocity..............   2.08488E-03
 global y velocity..............  -5.57956E-05
 global z velocity..............  -2.46035E-08
 time per zone cycle.(nanosec)..             0


 dt of cycle     851 is controlled by solid         100442 of part        10

 time...........................   1.79937E-01
 time step......................   2.05209E-04
 kinetic energy.................   3.53736E+00
 internal energy................   1.38317E+01
 spring and damper energy.......   1.00000E-20
 hourglass energy ..............   0.00000E+00
 system damping energy..........   0.00000E+00
 sliding interface energy.......   2.76250E+00
 external work..................   0.00000E+00
 eroded kinetic energy..........   0.00000E+00
 eroded internal energy.........   0.00000E+00
 eroded hourglass energy........   0.00000E+00
 total energy...................   2.01316E+01
 total energy / initial energy..   1.00000E+00
 energy ratio w/o eroded energy.   1.00000E+00
 global x velocity..............   2.29064E-02
 global y velocity..............   1.49068E-04
 global z velocity..............   1.88596E-06
 time per zone cycle.(nanosec)..             0


 dt of cycle     876 is controlled by solid         100441 of part        10

 time...........................   1.84997E-01
 time step......................   2.00474E-04
 kinetic energy.................   1.08567E+00
 internal energy................   1.62970E+01
 spring and damper energy.......   1.00000E-20
 hourglass energy ..............   0.00000E+00
 system damping energy..........   0.00000E+00
 sliding interface energy.......   3.56792E+00
 external work..................   0.00000E+00
 eroded kinetic energy..........   0.00000E+00
 eroded internal energy.........   0.00000E+00
 eroded hourglass energy........   0.00000E+00
 total energy...................   2.09506E+01
 total energy / initial energy..   1.00000E+00
 energy ratio w/o eroded energy.   1.00000E+00
 global x velocity..............   1.47431E-02
 global y velocity..............   2.24868E-03
 global z velocity..............   2.28322E-05
 time per zone cycle.(nanosec)..             0


 dt of cycle     900 is controlled by solid         100441 of part        10

 time...........................   1.89819E-01
 time step......................   2.00655E-04
 kinetic energy.................   5.43481E-01
 internal energy................   1.75839E+01
 spring and damper energy.......   1.00000E-20
 hourglass energy ..............   0.00000E+00
 system damping energy..........   0.00000E+00
 sliding interface energy.......   3.16786E+00
 external work..................   0.00000E+00
 eroded kinetic energy..........   0.00000E+00
 eroded internal energy.........   0.00000E+00
 eroded hourglass energy........   0.00000E+00
 total energy...................   2.12952E+01
 total energy / initial energy..   1.00000E+00
 energy ratio w/o eroded energy.   1.00000E+00
 global x velocity..............   6.20823E-02
 global y velocity..............  -1.10788E-02
 global z velocity..............   1.68014E-05
 time per zone cycle.(nanosec)..             0


 dt of cycle     925 is controlled by solid         100395 of part        10

 time...........................   1.94846E-01
 time step......................   2.00976E-04
 kinetic energy.................   9.69680E-01
 internal energy................   1.80073E+01
 spring and damper energy.......   1.00000E-20
 hourglass energy ..............   0.00000E+00
 system damping energy..........   0.00000E+00
 sliding interface energy.......   2.37268E+00
 external work..................   0.00000E+00
 eroded kinetic energy..........   0.00000E+00
 eroded internal energy.........   0.00000E+00
 eroded hourglass energy........   0.00000E+00
 total energy...................   2.13497E+01
 total energy / initial energy..   1.00000E+00
 energy ratio w/o eroded energy.   1.00000E+00
 global x velocity..............   8.48131E-02
 global y velocity..............   1.81932E-02
 global z velocity..............   3.24218E-05
 time per zone cycle.(nanosec)..             0


 dt of cycle     950 is controlled by solid         100441 of part        10

 time...........................   1.99869E-01
 time step......................   2.00691E-04
 kinetic energy.................   1.16437E+00
 internal energy................   1.84216E+01
 spring and damper energy.......   1.00000E-20
 hourglass energy ..............   0.00000E+00
 system damping energy..........   0.00000E+00
 sliding interface energy.......   2.00012E+00
 external work..................   0.00000E+00
 eroded kinetic energy..........   0.00000E+00
 eroded internal energy.........   0.00000E+00
 eroded hourglass energy........   0.00000E+00
 total energy...................   2.15861E+01
 total energy / initial energy..   1.00000E+00
 energy ratio w/o eroded energy.   1.00000E+00
 global x velocity..............   5.39809E-02
 global y velocity..............   3.04885E-02
 global z velocity..............  -9.12435E-05
 time per zone cycle.(nanosec)..             0


 dt of cycle     975 is controlled by solid         100395 of part        10

 time...........................   2.04896E-01
 time step......................   2.00888E-04
 kinetic energy.................   9.85756E-01
 internal energy................   1.88979E+01
 spring and damper energy.......   1.00000E-20
 hourglass energy ..............   0.00000E+00
 system damping energy..........   0.00000E+00
 sliding interface energy.......   1.82754E+00
 external work..................   0.00000E+00
 eroded kinetic energy..........   0.00000E+00
 eroded internal energy.........   0.00000E+00
 eroded hourglass energy........   0.00000E+00
 total energy...................   2.17112E+01
 total energy / initial energy..   1.00000E+00
 energy ratio w/o eroded energy.   1.00000E+00
 global x velocity..............   2.03850E-02
 global y velocity..............   1.45426E-02
 global z velocity..............  -8.57739E-04
 time per zone cycle.(nanosec)..             0


 dt of cycle    1000 is controlled by solid         100633 of part        10

 time...........................   2.09923E-01
 time step......................   2.01076E-04
 kinetic energy.................   6.76541E-01
 internal energy................   1.92921E+01
 spring and damper energy.......   1.00000E-20
 hourglass energy ..............   0.00000E+00
 system damping energy..........   0.00000E+00
 sliding interface energy.......   1.78822E+00
 external work..................   0.00000E+00
 eroded kinetic energy..........   0.00000E+00
 eroded internal energy.........   0.00000E+00
 eroded hourglass energy........   0.00000E+00
 total energy...................   2.17569E+01
 total energy / initial energy..   1.00000E+00
 energy ratio w/o eroded energy.   1.00000E+00
 global x velocity..............   1.58420E-02
 global y velocity..............  -6.93742E-02
 global z velocity..............   7.19556E-04
 time per zone cycle.(nanosec)..             0


 dt of cycle    1025 is controlled by solid         100395 of part        10

 time...........................   2.14947E-01
 time step......................   2.01115E-04
 kinetic energy.................   5.33754E-01
 internal energy................   1.95124E+01
 spring and damper energy.......   1.00000E-20
 hourglass energy ..............   0.00000E+00
 system damping energy..........   0.00000E+00
 sliding interface energy.......   1.78752E+00
 external work..................   0.00000E+00
 eroded kinetic energy..........   0.00000E+00
 eroded internal energy.........   0.00000E+00
 eroded hourglass energy........   0.00000E+00
 total energy...................   2.18337E+01
 total energy / initial energy..   1.00000E+00
 energy ratio w/o eroded energy.   1.00000E+00
 global x velocity..............  -6.15636E-03
 global y velocity..............  -1.24605E-01
 global z velocity..............   1.89826E-03
 time per zone cycle.(nanosec)..             0


 dt of cycle    1050 is controlled by solid         100640 of part        10

 time...........................   2.19971E-01
 time step......................   2.00902E-04
 kinetic energy.................   3.97348E-01
 internal energy................   1.96729E+01
 spring and damper energy.......   1.00000E-20
 hourglass energy ..............   0.00000E+00
 system damping energy..........   0.00000E+00
 sliding interface energy.......   1.78753E+00
 external work..................   0.00000E+00
 eroded kinetic energy..........   0.00000E+00
 eroded internal energy.........   0.00000E+00
 eroded hourglass energy........   0.00000E+00
 total energy...................   2.18577E+01
 total energy / initial energy..   1.00000E+00
 energy ratio w/o eroded energy.   1.00000E+00
 global x velocity..............  -3.88681E-03
 global y velocity..............  -1.14103E-01
 global z velocity..............   1.20087E-03
 time per zone cycle.(nanosec)..             0


 dt of cycle    1074 is controlled by solid         100441 of part        10

 time...........................   2.24799E-01
 time step......................   2.00851E-04
 kinetic energy.................   2.95127E-01
 internal energy................   1.99057E+01
 spring and damper energy.......   1.00000E-20
 hourglass energy ..............   0.00000E+00
 system damping energy..........   0.00000E+00
 sliding interface energy.......   1.78753E+00
 external work..................   0.00000E+00
 eroded kinetic energy..........   0.00000E+00
 eroded internal energy.........   0.00000E+00
 eroded hourglass energy........   0.00000E+00
 total energy...................   2.19883E+01
 total energy / initial energy..   1.00000E+00
 energy ratio w/o eroded energy.   1.00000E+00
 global x velocity..............   1.88862E-03
 global y velocity..............  -4.65668E-02
 global z velocity..............   5.56589E-04
 time per zone cycle.(nanosec)..             0


 dt of cycle    1099 is controlled by solid         100640 of part        10

 time...........................   2.29827E-01
 time step......................   2.00881E-04
 kinetic energy.................   3.70053E-01
 internal energy................   1.98787E+01
 spring and damper energy.......   1.00000E-20
 hourglass energy ..............   0.00000E+00
 system damping energy..........   0.00000E+00
 sliding interface energy.......   1.79303E+00
 external work..................   0.00000E+00
 eroded kinetic energy..........   0.00000E+00
 eroded internal energy.........   0.00000E+00
 eroded hourglass energy........   0.00000E+00
 total energy...................   2.20418E+01
 total energy / initial energy..   1.00000E+00
 energy ratio w/o eroded energy.   1.00000E+00
 global x velocity..............  -5.82779E-02
 global y velocity..............   4.34176E-02
 global z velocity..............  -1.59619E-03
 time per zone cycle.(nanosec)..             0


 dt of cycle    1124 is controlled by solid         100441 of part        10

 time...........................   2.34854E-01
 time step......................   2.00740E-04
 kinetic energy.................   4.14258E-01
 internal energy................   2.00019E+01
 spring and damper energy.......   1.00000E-20
 hourglass energy ..............   0.00000E+00
 system damping energy..........   0.00000E+00
 sliding interface energy.......   1.83062E+00
 external work..................   0.00000E+00
 eroded kinetic energy..........   0.00000E+00
 eroded internal energy.........   0.00000E+00
 eroded hourglass energy........   0.00000E+00
 total energy...................   2.22468E+01
 total energy / initial energy..   1.00000E+00
 energy ratio w/o eroded energy.   1.00000E+00
 global x velocity..............  -2.55049E-02
 global y velocity..............   8.93776E-02
 global z velocity..............  -8.99615E-04
 time per zone cycle.(nanosec)..             0


 dt of cycle    1149 is controlled by solid         100640 of part        10

 time...........................   2.39879E-01
 time step......................   2.00766E-04
 kinetic energy.................   6.12436E-01
 internal energy................   2.04256E+01
 spring and damper energy.......   1.00000E-20
 hourglass energy ..............   0.00000E+00
 system damping energy..........   0.00000E+00
 sliding interface energy.......   1.83948E+00
 external work..................   0.00000E+00
 eroded kinetic energy..........   0.00000E+00
 eroded internal energy.........   0.00000E+00
 eroded hourglass energy........   0.00000E+00
 total energy...................   2.28776E+01
 total energy / initial energy..   1.00000E+00
 energy ratio w/o eroded energy.   1.00000E+00
 global x velocity..............   1.02177E-03
 global y velocity..............   6.02785E-02
 global z velocity..............   5.87639E-04
 time per zone cycle.(nanosec)..             0


 dt of cycle    1174 is controlled by solid         100441 of part        10

 time...........................   2.44905E-01
 time step......................   2.00808E-04
 kinetic energy.................   9.10453E-01
 internal energy................   2.06301E+01
 spring and damper energy.......   1.00000E-20
 hourglass energy ..............   0.00000E+00
 system damping energy..........   0.00000E+00
 sliding interface energy.......   1.92274E+00
 external work..................   0.00000E+00
 eroded kinetic energy..........   0.00000E+00
 eroded internal energy.........   0.00000E+00
 eroded hourglass energy........   0.00000E+00
 total energy...................   2.34633E+01
 total energy / initial energy..   1.00000E+00
 energy ratio w/o eroded energy.   1.00000E+00
 global x velocity..............  -1.14986E-02
 global y velocity..............   8.98217E-03
 global z velocity..............   7.07105E-04
 time per zone cycle.(nanosec)..             0


 dt of cycle    1199 is controlled by solid         100441 of part        10

 time...........................   2.49931E-01
 time step......................   2.00737E-04
 kinetic energy.................   1.05628E+00
 internal energy................   2.08212E+01
 spring and damper energy.......   1.00000E-20
 hourglass energy ..............   0.00000E+00
 system damping energy..........   0.00000E+00
 sliding interface energy.......   2.12382E+00
 external work..................   0.00000E+00
 eroded kinetic energy..........   0.00000E+00
 eroded internal energy.........   0.00000E+00
 eroded hourglass energy........   0.00000E+00
 total energy...................   2.40013E+01
 total energy / initial energy..   1.00000E+00
 energy ratio w/o eroded energy.   1.00000E+00
 global x velocity..............   1.41126E-03
 global y velocity..............   1.15276E-02
 global z velocity..............   7.13053E-04
 time per zone cycle.(nanosec)..             0


 dt of cycle    1224 is controlled by solid         100395 of part        10

 time...........................   2.54953E-01
 time step......................   2.01046E-04
 kinetic energy.................   8.27221E-01
 internal energy................   2.13921E+01
 spring and damper energy.......   1.00000E-20
 hourglass energy ..............   0.00000E+00
 system damping energy..........   0.00000E+00
 sliding interface energy.......   2.58713E+00
 external work..................   0.00000E+00
 eroded kinetic energy..........   0.00000E+00
 eroded internal energy.........   0.00000E+00
 eroded hourglass energy........   0.00000E+00
 total energy...................   2.48064E+01
 total energy / initial energy..   1.00000E+00
 energy ratio w/o eroded energy.   1.00000E+00
 global x velocity..............   3.63659E-02
 global y velocity..............   5.16988E-02
 global z velocity..............   9.15424E-04
 time per zone cycle.(nanosec)..             0


 dt of cycle    1249 is controlled by solid         100441 of part        10

 time...........................   2.59974E-01
 time step......................   2.00688E-04
 kinetic energy.................   3.56808E-01
 internal energy................   2.21718E+01
 spring and damper energy.......   1.00000E-20
 hourglass energy ..............   0.00000E+00
 system damping energy..........   0.00000E+00
 sliding interface energy.......   2.87971E+00
 external work..................   0.00000E+00
 eroded kinetic energy..........   0.00000E+00
 eroded internal energy.........   0.00000E+00
 eroded hourglass energy........   0.00000E+00
 total energy...................   2.54083E+01
 total energy / initial energy..   1.00000E+00
 energy ratio w/o eroded energy.   1.00000E+00
 global x velocity..............   3.96708E-02
 global y velocity..............   1.05154E-01
 global z velocity..............  -6.30102E-05
 time per zone cycle.(nanosec)..             0


 dt of cycle    1274 is controlled by solid         100635 of part        10

 time...........................   2.64998E-01
 time step......................   2.01696E-04
 kinetic energy.................   3.11220E-01
 internal energy................   2.21652E+01
 spring and damper energy.......   1.00000E-20
 hourglass energy ..............   0.00000E+00
 system damping energy..........   0.00000E+00
 sliding interface energy.......   2.99618E+00
 external work..................   0.00000E+00
 eroded kinetic energy..........   0.00000E+00
 eroded internal energy.........   0.00000E+00
 eroded hourglass energy........   0.00000E+00
 total energy...................   2.54726E+01
 total energy / initial energy..   1.00000E+00
 energy ratio w/o eroded energy.   1.00000E+00
 global x velocity..............   4.47058E-02
 global y velocity..............   1.17683E-01
 global z velocity..............  -1.78566E-03
 time per zone cycle.(nanosec)..             0


 dt of cycle    1298 is controlled by solid         100442 of part        10

 time...........................   2.69819E-01
 time step......................   2.01892E-04
 kinetic energy.................   5.66860E-01
 internal energy................   2.22937E+01
 spring and damper energy.......   1.00000E-20
 hourglass energy ..............   0.00000E+00
 system damping energy..........   0.00000E+00
 sliding interface energy.......   2.64600E+00
 external work..................   0.00000E+00
 eroded kinetic energy..........   0.00000E+00
 eroded internal energy.........   0.00000E+00
 eroded hourglass energy........   0.00000E+00
 total energy...................   2.55065E+01
 total energy / initial energy..   1.00000E+00
 energy ratio w/o eroded energy.   1.00000E+00
 global x velocity..............   5.20786E-02
 global y velocity..............   1.21369E-01
 global z velocity..............  -1.94857E-03
 time per zone cycle.(nanosec)..             0


 dt of cycle    1323 is controlled by solid         100640 of part        10

 time...........................   2.74841E-01
 time step......................   2.00803E-04
 kinetic energy.................   5.88968E-01
 internal energy................   2.26326E+01
 spring and damper energy.......   1.00000E-20
 hourglass energy ..............   0.00000E+00
 system damping energy..........   0.00000E+00
 sliding interface energy.......   2.35203E+00
 external work..................   0.00000E+00
 eroded kinetic energy..........   0.00000E+00
 eroded internal energy.........   0.00000E+00
 eroded hourglass energy........   0.00000E+00
 total energy...................   2.55736E+01
 total energy / initial energy..   1.00000E+00
 energy ratio w/o eroded energy.   1.00000E+00
 global x velocity..............   3.19447E-02
 global y velocity..............   9.56889E-02
 global z velocity..............  -1.26019E-03
 time per zone cycle.(nanosec)..             0


 dt of cycle    1348 is controlled by solid         100441 of part        10

 time...........................   2.79862E-01
 time step......................   2.00781E-04
 kinetic energy.................   4.35031E-01
 internal energy................   2.29263E+01
 spring and damper energy.......   1.00000E-20
 hourglass energy ..............   0.00000E+00
 system damping energy..........   0.00000E+00
 sliding interface energy.......   2.26683E+00
 external work..................   0.00000E+00
 eroded kinetic energy..........   0.00000E+00
 eroded internal energy.........   0.00000E+00
 eroded hourglass energy........   0.00000E+00
 total energy...................   2.56282E+01
 total energy / initial energy..   1.00000E+00
 energy ratio w/o eroded energy.   1.00000E+00
 global x velocity..............   3.14834E-02
 global y velocity..............   7.87860E-02
 global z velocity..............   5.32648E-04
 time per zone cycle.(nanosec)..             0


 dt of cycle    1373 is controlled by solid         100635 of part        10

 time...........................   2.84892E-01
 time step......................   2.01760E-04
 kinetic energy.................   3.34035E-01
 internal energy................   2.30895E+01
 spring and damper energy.......   1.00000E-20
 hourglass energy ..............   0.00000E+00
 system damping energy..........   0.00000E+00
 sliding interface energy.......   2.21578E+00
 external work..................   0.00000E+00
 eroded kinetic energy..........   0.00000E+00
 eroded internal energy.........   0.00000E+00
 eroded hourglass energy........   0.00000E+00
 total energy...................   2.56393E+01
 total energy / initial energy..   1.00000E+00
 energy ratio w/o eroded energy.   1.00000E+00
 global x velocity..............   1.27188E-02
 global y velocity..............  -1.90252E-02
 global z velocity..............  -1.28051E-04
 time per zone cycle.(nanosec)..             0


 dt of cycle    1398 is controlled by solid         100441 of part        10

 time...........................   2.89922E-01
 time step......................   2.00724E-04
 kinetic energy.................   2.41050E-01
 internal energy................   2.31981E+01
 spring and damper energy.......   1.00000E-20
 hourglass energy ..............   0.00000E+00
 system damping energy..........   0.00000E+00
 sliding interface energy.......   2.20062E+00
 external work..................   0.00000E+00
 eroded kinetic energy..........   0.00000E+00
 eroded internal energy.........   0.00000E+00
 eroded hourglass energy........   0.00000E+00
 total energy...................   2.56398E+01
 total energy / initial energy..   1.00000E+00
 energy ratio w/o eroded energy.   1.00000E+00
 global x velocity..............  -2.04508E-02
 global y velocity..............  -1.19592E-01
 global z velocity..............  -6.60490E-04
 time per zone cycle.(nanosec)..             0


 dt of cycle    1423 is controlled by solid         100441 of part        10

 time...........................   2.94947E-01
 time step......................   2.00646E-04
 kinetic energy.................   2.52047E-01
 internal energy................   2.32611E+01
 spring and damper energy.......   1.00000E-20
 hourglass energy ..............   0.00000E+00
 system damping energy..........   0.00000E+00
 sliding interface energy.......   2.23421E+00
 external work..................   0.00000E+00
 eroded kinetic energy..........   0.00000E+00
 eroded internal energy.........   0.00000E+00
 eroded hourglass energy........   0.00000E+00
 total energy...................   2.57473E+01
 total energy / initial energy..   1.00000E+00
 energy ratio w/o eroded energy.   1.00000E+00
 global x velocity..............  -3.08902E-02
 global y velocity..............  -1.25193E-01
 global z velocity..............  -9.16516E-04
 time per zone cycle.(nanosec)..             0


 dt of cycle    1448 is controlled by solid         100441 of part        10

 time...........................   2.99971E-01
 time step......................   2.00646E-04
 kinetic energy.................   3.72221E-01
 internal energy................   2.35209E+01
 spring and damper energy.......   1.00000E-20
 hourglass energy ..............   0.00000E+00
 system damping energy..........   0.00000E+00
 sliding interface energy.......   2.30469E+00
 external work..................   0.00000E+00
 eroded kinetic energy..........   0.00000E+00
 eroded internal energy.........   0.00000E+00
 eroded hourglass energy........   0.00000E+00
 total energy...................   2.61979E+01
 total energy / initial energy..   1.00000E+00
 energy ratio w/o eroded energy.   1.00000E+00
 global x velocity..............  -1.39297E-02
 global y velocity..............  -6.90367E-02
 global z velocity..............  -1.91678E-03
 time per zone cycle.(nanosec)..             0


 dt of cycle    1473 is controlled by solid         100441 of part        10

 time...........................   3.04996E-01
 time step......................   2.00624E-04
 kinetic energy.................   5.20774E-01
 internal energy................   2.38436E+01
 spring and damper energy.......   1.00000E-20
 hourglass energy ..............   0.00000E+00
 system damping energy..........   0.00000E+00
 sliding interface energy.......   2.42247E+00
 external work..................   0.00000E+00
 eroded kinetic energy..........   0.00000E+00
 eroded internal energy.........   0.00000E+00
 eroded hourglass energy........   0.00000E+00
 total energy...................   2.67869E+01
 total energy / initial energy..   1.00000E+00
 energy ratio w/o eroded energy.   1.00000E+00
 global x velocity..............  -2.65431E-02
 global y velocity..............  -1.15575E-02
 global z velocity..............  -5.29443E-04
 time per zone cycle.(nanosec)..             0


 dt of cycle    1497 is controlled by solid         100395 of part        10

 time...........................   3.09819E-01
 time step......................   2.00991E-04
 kinetic energy.................   5.00739E-01
 internal energy................   2.40387E+01
 spring and damper energy.......   1.00000E-20
 hourglass energy ..............   0.00000E+00
 system damping energy..........   0.00000E+00
 sliding interface energy.......   2.73607E+00
 external work..................   0.00000E+00
 eroded kinetic energy..........   0.00000E+00
 eroded internal energy.........   0.00000E+00
 eroded hourglass energy........   0.00000E+00
 total energy...................   2.72755E+01
 total energy / initial energy..   1.00000E+00
 energy ratio w/o eroded energy.   1.00000E+00
 global x velocity..............   5.15511E-03
 global y velocity..............  -1.55045E-02
 global z velocity..............  -1.42699E-04
 time per zone cycle.(nanosec)..             0


 dt of cycle    1522 is controlled by solid         100441 of part        10

 time...........................   3.14840E-01
 time step......................   2.00693E-04
 kinetic energy.................   2.85951E-01
 internal energy................   2.44684E+01
 spring and damper energy.......   1.00000E-20
 hourglass energy ..............   0.00000E+00
 system damping energy..........   0.00000E+00
 sliding interface energy.......   2.96886E+00
 external work..................   0.00000E+00
 eroded kinetic energy..........   0.00000E+00
 eroded internal energy.........   0.00000E+00
 eroded hourglass energy........   0.00000E+00
 total energy...................   2.77232E+01
 total energy / initial energy..   1.00000E+00
 energy ratio w/o eroded energy.   1.00000E+00
 global x velocity..............   2.71635E-02
 global y velocity..............  -7.20101E-02
 global z velocity..............   1.15331E-04
 time per zone cycle.(nanosec)..             0


 dt of cycle    1547 is controlled by solid         100640 of part        10

 time...........................   3.19863E-01
 time step......................   2.00758E-04
 kinetic energy.................   2.31904E-01
 internal energy................   2.46440E+01
 spring and damper energy.......   1.00000E-20
 hourglass energy ..............   0.00000E+00
 system damping energy..........   0.00000E+00
 sliding interface energy.......   2.95647E+00
 external work..................   0.00000E+00
 eroded kinetic energy..........   0.00000E+00
 eroded internal energy.........   0.00000E+00
 eroded hourglass energy........   0.00000E+00
 total energy...................   2.78324E+01
 total energy / initial energy..   1.00000E+00
 energy ratio w/o eroded energy.   1.00000E+00
 global x velocity..............   1.62259E-02
 global y velocity..............  -1.12889E-01
 global z velocity..............   1.18638E-03
 time per zone cycle.(nanosec)..             0


 dt of cycle    1572 is controlled by solid         100636 of part        10

 time...........................   3.24885E-01
 time step......................   2.02416E-04
 kinetic energy.................   3.36917E-01
 internal energy................   2.46699E+01
 spring and damper energy.......   1.00000E-20
 hourglass energy ..............   0.00000E+00
 system damping energy..........   0.00000E+00
 sliding interface energy.......   2.84737E+00
 external work..................   0.00000E+00
 eroded kinetic energy..........   0.00000E+00
 eroded internal energy.........   0.00000E+00
 eroded hourglass energy........   0.00000E+00
 total energy...................   2.78542E+01
 total energy / initial energy..   1.00000E+00
 energy ratio w/o eroded energy.   1.00000E+00
 global x velocity..............   2.53934E-02
 global y velocity..............  -7.89781E-02
 global z velocity..............   3.19545E-04
 time per zone cycle.(nanosec)..             0


 dt of cycle    1597 is controlled by solid         100441 of part        10

 time...........................   3.29915E-01
 time step......................   2.00738E-04
 kinetic energy.................   2.71297E-01
 internal energy................   2.49922E+01
 spring and damper energy.......   1.00000E-20
 hourglass energy ..............   0.00000E+00
 system damping energy..........   0.00000E+00
 sliding interface energy.......   2.61424E+00
 external work..................   0.00000E+00
 eroded kinetic energy..........   0.00000E+00
 eroded internal energy.........   0.00000E+00
 eroded hourglass energy........   0.00000E+00
 total energy...................   2.78777E+01
 total energy / initial energy..   1.00000E+00
 energy ratio w/o eroded energy.   1.00000E+00
 global x velocity..............   3.73605E-02
 global y velocity..............   1.16455E-02
 global z velocity..............  -3.71005E-04
 time per zone cycle.(nanosec)..             0


 dt of cycle    1622 is controlled by solid         100635 of part        10

 time...........................   3.34943E-01
 time step......................   2.01756E-04
 kinetic energy.................   2.86402E-01
 internal energy................   2.51117E+01
 spring and damper energy.......   1.00000E-20
 hourglass energy ..............   0.00000E+00
 system damping energy..........   0.00000E+00
 sliding interface energy.......   2.49460E+00
 external work..................   0.00000E+00
 eroded kinetic energy..........   0.00000E+00
 eroded internal energy.........   0.00000E+00
 eroded hourglass energy........   0.00000E+00
 total energy...................   2.78927E+01
 total energy / initial energy..   1.00000E+00
 energy ratio w/o eroded energy.   1.00000E+00
 global x velocity..............   2.66717E-02
 global y velocity..............   8.72768E-02
 global z velocity..............  -1.10694E-03
 time per zone cycle.(nanosec)..             0


 dt of cycle    1647 is controlled by solid         100638 of part        10

 time...........................   3.39966E-01
 time step......................   2.01894E-04
 kinetic energy.................   2.85685E-01
 internal energy................   2.51433E+01
 spring and damper energy.......   1.00000E-20
 hourglass energy ..............   0.00000E+00
 system damping energy..........   0.00000E+00
 sliding interface energy.......   2.47119E+00
 external work..................   0.00000E+00
 eroded kinetic energy..........   0.00000E+00
 eroded internal energy.........   0.00000E+00
 eroded hourglass energy........   0.00000E+00
 total energy...................   2.79002E+01
 total energy / initial energy..   1.00000E+00
 energy ratio w/o eroded energy.   1.00000E+00
 global x velocity..............   2.81052E-02
 global y velocity..............   1.01398E-01
 global z velocity..............  -3.69417E-04
 time per zone cycle.(nanosec)..             0


 dt of cycle    1672 is controlled by solid         100441 of part        10

 time...........................   3.44994E-01
 time step......................   2.00713E-04
 kinetic energy.................   2.85885E-01
 internal energy................   2.52355E+01
 spring and damper energy.......   1.00000E-20
 hourglass energy ..............   0.00000E+00
 system damping energy..........   0.00000E+00
 sliding interface energy.......   2.46482E+00
 external work..................   0.00000E+00
 eroded kinetic energy..........   0.00000E+00
 eroded internal energy.........   0.00000E+00
 eroded hourglass energy........   0.00000E+00
 total energy...................   2.79862E+01
 total energy / initial energy..   1.00000E+00
 energy ratio w/o eroded energy.   1.00000E+00
 global x velocity..............   2.52955E-02
 global y velocity..............   4.44793E-02
 global z velocity..............  -9.67186E-04
 time per zone cycle.(nanosec)..             0


 dt of cycle    1696 is controlled by solid         100395 of part        10

 time...........................   3.49814E-01
 time step......................   2.01058E-04
 kinetic energy.................   2.88464E-01
 internal energy................   2.54839E+01
 spring and damper energy.......   1.00000E-20
 hourglass energy ..............   0.00000E+00
 system damping energy..........   0.00000E+00
 sliding interface energy.......   2.52194E+00
 external work..................   0.00000E+00
 eroded kinetic energy..........   0.00000E+00
 eroded internal energy.........   0.00000E+00
 eroded hourglass energy........   0.00000E+00
 total energy...................   2.82943E+01
 total energy / initial energy..   1.00000E+00
 energy ratio w/o eroded energy.   1.00000E+00
 global x velocity..............  -6.94263E-03
 global y velocity..............  -6.71785E-03
 global z velocity..............  -1.57243E-03
 time per zone cycle.(nanosec)..             0


 dt of cycle    1721 is controlled by solid         100441 of part        10

 time...........................   3.54837E-01
 time step......................   2.00807E-04
 kinetic energy.................   2.89790E-01
 internal energy................   2.57450E+01
 spring and damper energy.......   1.00000E-20
 hourglass energy ..............   0.00000E+00
 system damping energy..........   0.00000E+00
 sliding interface energy.......   2.67741E+00
 external work..................   0.00000E+00
 eroded kinetic energy..........   0.00000E+00
 eroded internal energy.........   0.00000E+00
 eroded hourglass energy........   0.00000E+00
 total energy...................   2.87122E+01
 total energy / initial energy..   1.00000E+00
 energy ratio w/o eroded energy.   1.00000E+00
 global x velocity..............   1.12414E-03
 global y velocity..............  -3.73857E-02
 global z velocity..............  -2.36088E-03
 time per zone cycle.(nanosec)..             0


 dt of cycle    1746 is controlled by solid         100635 of part        10

 time...........................   3.59864E-01
 time step......................   2.01627E-04
 kinetic energy.................   2.44162E-01
 internal energy................   2.61096E+01
 spring and damper energy.......   1.00000E-20
 hourglass energy ..............   0.00000E+00
 system damping energy..........   0.00000E+00
 sliding interface energy.......   2.86165E+00
 external work..................   0.00000E+00
 eroded kinetic energy..........   0.00000E+00
 eroded internal energy.........   0.00000E+00
 eroded hourglass energy........   0.00000E+00
 total energy...................   2.92154E+01
 total energy / initial energy..   1.00000E+00
 energy ratio w/o eroded energy.   1.00000E+00
 global x velocity..............  -3.42883E-03
 global y velocity..............  -2.16145E-02
 global z velocity..............  -1.67868E-03
 time per zone cycle.(nanosec)..             0


 dt of cycle    1771 is controlled by solid         100441 of part        10

 time...........................   3.64885E-01
 time step......................   2.00676E-04
 kinetic energy.................   1.63449E-01
 internal energy................   2.63631E+01
 spring and damper energy.......   1.00000E-20
 hourglass energy ..............   0.00000E+00
 system damping energy..........   0.00000E+00
 sliding interface energy.......   3.01377E+00
 external work..................   0.00000E+00
 eroded kinetic energy..........   0.00000E+00
 eroded internal energy.........   0.00000E+00
 eroded hourglass energy........   0.00000E+00
 total energy...................   2.95404E+01
 total energy / initial energy..   1.00000E+00
 energy ratio w/o eroded energy.   1.00000E+00
 global x velocity..............  -2.10987E-02
 global y velocity..............   1.35197E-02
 global z velocity..............  -1.70908E-03
 time per zone cycle.(nanosec)..             0


 dt of cycle    1796 is controlled by solid         100640 of part        10

 time...........................   3.69907E-01
 time step......................   2.00695E-04
 kinetic energy.................   2.35897E-01
 internal energy................   2.62612E+01
 spring and damper energy.......   1.00000E-20
 hourglass energy ..............   0.00000E+00
 system damping energy..........   0.00000E+00
 sliding interface energy.......   3.06073E+00
 external work..................   0.00000E+00
 eroded kinetic energy..........   0.00000E+00
 eroded internal energy.........   0.00000E+00
 eroded hourglass energy........   0.00000E+00
 total energy...................   2.95578E+01
 total energy / initial energy..   1.00000E+00
 energy ratio w/o eroded energy.   1.00000E+00
 global x velocity..............  -2.65588E-02
 global y velocity..............   1.31556E-02
 global z velocity..............  -1.93573E-03
 time per zone cycle.(nanosec)..             0


 dt of cycle    1821 is controlled by solid         100441 of part        10

 time...........................   3.74951E-01
 time step......................   2.00718E-04
 kinetic energy.................   2.95579E-01
 internal energy................   2.63588E+01
 spring and damper energy.......   1.00000E-20
 hourglass energy ..............   0.00000E+00
 system damping energy..........   0.00000E+00
 sliding interface energy.......   2.91109E+00
 external work..................   0.00000E+00
 eroded kinetic energy..........   0.00000E+00
 eroded internal energy.........   0.00000E+00
 eroded hourglass energy........   0.00000E+00
 total energy...................   2.95654E+01
 total energy / initial energy..   1.00000E+00
 energy ratio w/o eroded energy.   1.00000E+00
 global x velocity..............   6.57575E-04
 global y velocity..............   5.16046E-03
 global z velocity..............  -1.08534E-03
 time per zone cycle.(nanosec)..             0


 dt of cycle    1846 is controlled by solid         100441 of part        10

 time...........................   3.79971E-01
 time step......................   2.00778E-04
 kinetic energy.................   2.34941E-01
 internal energy................   2.65910E+01
 spring and damper energy.......   1.00000E-20
 hourglass energy ..............   0.00000E+00
 system damping energy..........   0.00000E+00
 sliding interface energy.......   2.75310E+00
 external work..................   0.00000E+00
 eroded kinetic energy..........   0.00000E+00
 eroded internal energy.........   0.00000E+00
 eroded hourglass energy........   0.00000E+00
 total energy...................   2.95790E+01
 total energy / initial energy..   1.00000E+00
 energy ratio w/o eroded energy.   1.00000E+00
 global x velocity..............  -6.82194E-04
 global y velocity..............  -1.43851E-02
 global z velocity..............  -3.36491E-07
 time per zone cycle.(nanosec)..             0


 dt of cycle    1871 is controlled by solid         100395 of part        10

 time...........................   3.84998E-01
 time step......................   2.01050E-04
 kinetic energy.................   1.81060E-01
 internal energy................   2.67309E+01
 spring and damper energy.......   1.00000E-20
 hourglass energy ..............   0.00000E+00
 system damping energy..........   0.00000E+00
 sliding interface energy.......   2.67625E+00
 external work..................   0.00000E+00
 eroded kinetic energy..........   0.00000E+00
 eroded internal energy.........   0.00000E+00
 eroded hourglass energy........   0.00000E+00
 total energy...................   2.95883E+01
 total energy / initial energy..   1.00000E+00
 energy ratio w/o eroded energy.   1.00000E+00
 global x velocity..............  -8.46585E-04
 global y velocity..............  -3.15555E-02
 global z velocity..............   4.04613E-04
 time per zone cycle.(nanosec)..             0


 dt of cycle    1895 is controlled by solid         100395 of part        10

 time...........................   3.89818E-01
 time step......................   2.01036E-04
 kinetic energy.................   1.73419E-01
 internal energy................   2.67802E+01
 spring and damper energy.......   1.00000E-20
 hourglass energy ..............   0.00000E+00
 system damping energy..........   0.00000E+00
 sliding interface energy.......   2.65040E+00
 external work..................   0.00000E+00
 eroded kinetic energy..........   0.00000E+00
 eroded internal energy.........   0.00000E+00
 eroded hourglass energy........   0.00000E+00
 total energy...................   2.96041E+01
 total energy / initial energy..   1.00000E+00
 energy ratio w/o eroded energy.   1.00000E+00
 global x velocity..............  -2.44472E-02
 global y velocity..............  -3.14128E-02
 global z velocity..............  -5.25824E-04
 time per zone cycle.(nanosec)..             0


 dt of cycle    1920 is controlled by solid         100441 of part        10

 time...........................   3.94841E-01
 time step......................   2.00741E-04
 kinetic energy.................   1.88294E-01
 internal energy................   2.69295E+01
 spring and damper energy.......   1.00000E-20
 hourglass energy ..............   0.00000E+00
 system damping energy..........   0.00000E+00
 sliding interface energy.......   2.68030E+00
 external work..................   0.00000E+00
 eroded kinetic energy..........   0.00000E+00
 eroded internal energy.........   0.00000E+00
 eroded hourglass energy........   0.00000E+00
 total energy...................   2.97981E+01
 total energy / initial energy..   1.00000E+00
 energy ratio w/o eroded energy.   1.00000E+00
 global x velocity..............  -4.30676E-02
 global y velocity..............  -2.87098E-02
 global z velocity..............  -8.13648E-04
 time per zone cycle.(nanosec)..             0


 dt of cycle    1945 is controlled by solid         100441 of part        10

 time...........................   3.99874E-01
 time step......................   2.00678E-04
 kinetic energy.................   2.38494E-01
 internal energy................   2.70784E+01
 spring and damper energy.......   1.00000E-20
 hourglass energy ..............   0.00000E+00
 system damping energy..........   0.00000E+00
 sliding interface energy.......   2.80347E+00
 external work..................   0.00000E+00
 eroded kinetic energy..........   0.00000E+00
 eroded internal energy.........   0.00000E+00
 eroded hourglass energy........   0.00000E+00
 total energy...................   3.01204E+01
 total energy / initial energy..   1.00000E+00
 energy ratio w/o eroded energy.   1.00000E+00
 global x velocity..............  -1.53030E-02
 global y velocity..............   3.80289E-03
 global z velocity..............  -4.87748E-04
 time per zone cycle.(nanosec)..             0


 dt of cycle    1970 is controlled by solid         100441 of part        10

 time...........................   4.04894E-01
 time step......................   2.00685E-04
 kinetic energy.................   2.10395E-01
 internal energy................   2.73984E+01
 spring and damper energy.......   1.00000E-20
 hourglass energy ..............   0.00000E+00
 system damping energy..........   0.00000E+00
 sliding interface energy.......   2.95465E+00
 external work..................   0.00000E+00
 eroded kinetic energy..........   0.00000E+00
 eroded internal energy.........   0.00000E+00
 eroded hourglass energy........   0.00000E+00
 total energy...................   3.05634E+01
 total energy / initial energy..   1.00000E+00
 energy ratio w/o eroded energy.   1.00000E+00
 global x velocity..............  -7.78706E-03
 global y velocity..............   6.37190E-02
 global z velocity..............  -4.98415E-04
 time per zone cycle.(nanosec)..             0


[...]
 external work..................   2.23788E+01
 eroded kinetic energy..........   0.00000E+00
 eroded internal energy.........   0.00000E+00
 eroded hourglass energy........   0.00000E+00
 total energy...................   7.86383E+01
 total energy / initial energy..   3.51396E+00
 energy ratio w/o eroded energy.   3.51396E+00
 global x velocity..............   3.89012E-01
 global y velocity..............  -1.05382E+00
 global z velocity..............   2.09132E-03
 time per zone cycle.(nanosec)..             0


 dt of cycle   24466 is controlled by solid         100635 of part        10

 time...........................   4.90492E+00
 time step......................   1.99908E-04
 kinetic energy.................   3.43546E-01
 internal energy................   5.61637E+01
 spring and damper energy.......   1.00000E-20
 hourglass energy ..............   0.00000E+00
 system damping energy..........   0.00000E+00
 sliding interface energy.......   2.21786E+01
 external work..................   2.24265E+01
 eroded kinetic energy..........   0.00000E+00
 eroded internal energy.........   0.00000E+00
 eroded hourglass energy........   0.00000E+00
 total energy...................   7.86858E+01
 total energy / initial energy..   3.50860E+00
 energy ratio w/o eroded energy.   3.50860E+00
 global x velocity..............   5.72215E-01
 global y velocity..............  -1.06024E+00
 global z velocity..............   5.12092E-04
 time per zone cycle.(nanosec)..             0


 dt of cycle   24491 is controlled by solid         100633 of part        10

 time...........................   4.90989E+00
 time step......................   1.97966E-04
 kinetic energy.................   3.30728E-01
 internal energy................   5.61809E+01
 spring and damper energy.......   1.00000E-20
 hourglass energy ..............   0.00000E+00
 system damping energy..........   0.00000E+00
 sliding interface energy.......   2.22213E+01
 external work..................   2.24738E+01
 eroded kinetic energy..........   0.00000E+00
 eroded internal energy.........   0.00000E+00
 eroded hourglass energy........   0.00000E+00
 total energy...................   7.87329E+01
 total energy / initial energy..   3.50333E+00
 energy ratio w/o eroded energy.   3.50333E+00
 global x velocity..............   7.96727E-01
 global y velocity..............  -1.06996E+00
 global z velocity..............  -2.85115E-03
 time per zone cycle.(nanosec)..             0


 dt of cycle   24516 is controlled by solid         100635 of part        10

 time...........................   4.91485E+00
 time step......................   1.99897E-04
 kinetic energy.................   3.38991E-01
 internal energy................   5.61868E+01
 spring and damper energy.......   1.00000E-20
 hourglass energy ..............   0.00000E+00
 system damping energy..........   0.00000E+00
 sliding interface energy.......   2.22530E+01
 external work..................   2.25198E+01
 eroded kinetic energy..........   0.00000E+00
 eroded internal energy.........   0.00000E+00
 eroded hourglass energy........   0.00000E+00
 total energy...................   7.87788E+01
 total energy / initial energy..   3.49819E+00
 energy ratio w/o eroded energy.   3.49819E+00
 global x velocity..............   1.01915E+00
 global y velocity..............  -1.08219E+00
 global z velocity..............  -5.86354E-03
 time per zone cycle.(nanosec)..             0


 dt of cycle   24541 is controlled by solid         100633 of part        10

 time...........................   4.91982E+00
 time step......................   1.97958E-04
 kinetic energy.................   3.63164E-01
 internal energy................   5.61833E+01
 spring and damper energy.......   1.00000E-20
 hourglass energy ..............   0.00000E+00
 system damping energy..........   0.00000E+00
 sliding interface energy.......   2.22780E+01
 external work..................   2.25657E+01
 eroded kinetic energy..........   0.00000E+00
 eroded internal energy.........   0.00000E+00
 eroded hourglass energy........   0.00000E+00
 total energy...................   7.88245E+01
 total energy / initial energy..   3.49311E+00
 energy ratio w/o eroded energy.   3.49311E+00
 global x velocity..............   1.20085E+00
 global y velocity..............  -1.09669E+00
 global z velocity..............  -7.31466E-03
 time per zone cycle.(nanosec)..             0


 dt of cycle   24567 is controlled by solid         100395 of part        10

 time...........................   4.92497E+00
 time step......................   1.97902E-04
 kinetic energy.................   3.87026E-01
 internal energy................   5.61876E+01
 spring and damper energy.......   1.00000E-20
 hourglass energy ..............   0.00000E+00
 system damping energy..........   0.00000E+00
 sliding interface energy.......   2.22962E+01
 external work..................   2.26121E+01
 eroded kinetic energy..........   0.00000E+00
 eroded internal energy.........   0.00000E+00
 eroded hourglass energy........   0.00000E+00
 total energy...................   7.88708E+01
 total energy / initial energy..   3.48799E+00
 energy ratio w/o eroded energy.   3.48799E+00
 global x velocity..............   1.32345E+00
 global y velocity..............  -1.10879E+00
 global z velocity..............  -6.91172E-03
 time per zone cycle.(nanosec)..             0


 dt of cycle   24592 is controlled by solid         100633 of part        10

 time...........................   4.92994E+00
 time step......................   1.97953E-04
 kinetic energy.................   3.95836E-01
 internal energy................   5.62133E+01
 spring and damper energy.......   1.00000E-20
 hourglass energy ..............   0.00000E+00
 system damping energy..........   0.00000E+00
 sliding interface energy.......   2.23054E+01
 external work..................   2.26561E+01
 eroded kinetic energy..........   0.00000E+00
 eroded internal energy.........   0.00000E+00
 eroded hourglass energy........   0.00000E+00
 total energy...................   7.89146E+01
 total energy / initial energy..   3.48315E+00
 energy ratio w/o eroded energy.   3.48315E+00
 global x velocity..............   1.35456E+00
 global y velocity..............  -1.11181E+00
 global z velocity..............  -5.36146E-03
 time per zone cycle.(nanosec)..             0


 dt of cycle   24617 is controlled by solid         100395 of part        10

 time...........................   4.93491E+00
 time step......................   1.97896E-04
 kinetic energy.................   3.79380E-01
 internal energy................   5.62651E+01
 spring and damper energy.......   1.00000E-20
 hourglass energy ..............   0.00000E+00
 system damping energy..........   0.00000E+00
 sliding interface energy.......   2.23143E+01
 external work..................   2.27006E+01
 eroded kinetic energy..........   0.00000E+00
 eroded internal energy.........   0.00000E+00
 eroded hourglass energy........   0.00000E+00
 total energy...................   7.89588E+01
 total energy / initial energy..   3.47827E+00
 energy ratio w/o eroded energy.   3.47827E+00
 global x velocity..............   1.28904E+00
 global y velocity..............  -1.10434E+00
 global z velocity..............  -3.29984E-03
 time per zone cycle.(nanosec)..             0


 dt of cycle   24642 is controlled by solid         100636 of part        10

 time...........................   4.93988E+00
 time step......................   2.00501E-04
 kinetic energy.................   3.49043E-01
 internal energy................   5.63258E+01
 spring and damper energy.......   1.00000E-20
 hourglass energy ..............   0.00000E+00
 system damping energy..........   0.00000E+00
 sliding interface energy.......   2.23305E+01
 external work..................   2.27473E+01
 eroded kinetic energy..........   0.00000E+00
 eroded internal energy.........   0.00000E+00
 eroded hourglass energy........   0.00000E+00
 total energy...................   7.90054E+01
 total energy / initial energy..   3.47318E+00
 energy ratio w/o eroded energy.   3.47318E+00
 global x velocity..............   1.15054E+00
 global y velocity..............  -1.08518E+00
 global z velocity..............   1.51543E-03
 time per zone cycle.(nanosec)..             0


 dt of cycle   24667 is controlled by solid         100635 of part        10

 time...........................   4.94485E+00
 time step......................   1.99866E-04
 kinetic energy.................   3.19919E-01
 internal energy................   5.63806E+01
 spring and damper energy.......   1.00000E-20
 hourglass energy ..............   0.00000E+00
 system damping energy..........   0.00000E+00
 sliding interface energy.......   2.23520E+01
 external work..................   2.27946E+01
 eroded kinetic energy..........   0.00000E+00
 eroded internal energy.........   0.00000E+00
 eroded hourglass energy........   0.00000E+00
 total energy...................   7.90524E+01
 total energy / initial energy..   3.46804E+00
 energy ratio w/o eroded energy.   3.46804E+00
 global x velocity..............   9.77819E-01
 global y velocity..............  -1.06155E+00
 global z velocity..............   4.10911E-03
 time per zone cycle.(nanosec)..             0


 dt of cycle   24692 is controlled by solid         100395 of part        10

 time...........................   4.94982E+00
 time step......................   1.97875E-04
 kinetic energy.................   3.12592E-01
 internal energy................   5.63983E+01
 spring and damper energy.......   1.00000E-20
 hourglass energy ..............   0.00000E+00
 system damping energy..........   0.00000E+00
 sliding interface energy.......   2.23892E+01
 external work..................   2.28425E+01
 eroded kinetic energy..........   0.00000E+00
 eroded internal energy.........   0.00000E+00
 eroded hourglass energy........   0.00000E+00
 total energy...................   7.91001E+01
 total energy / initial energy..   3.46284E+00
 energy ratio w/o eroded energy.   3.46284E+00
 global x velocity..............   7.74046E-01
 global y velocity..............  -1.03909E+00
 global z velocity..............   6.20460E-03
 time per zone cycle.(nanosec)..             0


 dt of cycle   24718 is controlled by solid         100395 of part        10

 time...........................   4.95498E+00
 time step......................   1.97877E-04
 kinetic energy.................   3.29254E-01
 internal energy................   5.63734E+01
 spring and damper energy.......   1.00000E-20
 hourglass energy ..............   0.00000E+00
 system damping energy..........   0.00000E+00
 sliding interface energy.......   2.24444E+01
 external work..................   2.28899E+01
 eroded kinetic energy..........   0.00000E+00
 eroded internal energy.........   0.00000E+00
 eroded hourglass energy........   0.00000E+00
 total energy...................   7.91471E+01
 total energy / initial energy..   3.45773E+00
 energy ratio w/o eroded energy.   3.45773E+00
 global x velocity..............   5.59238E-01
 global y velocity..............  -1.01233E+00
 global z velocity..............   7.38364E-03
 time per zone cycle.(nanosec)..             0


 dt of cycle   24743 is controlled by solid         100635 of part        10

 time...........................   4.95995E+00
 time step......................   1.99867E-04
 kinetic energy.................   3.55754E-01
 internal energy................   5.63304E+01
 spring and damper energy.......   1.00000E-20
 hourglass energy ..............   0.00000E+00
 system damping energy..........   0.00000E+00
 sliding interface energy.......   2.25038E+01
 external work..................   2.29332E+01
 eroded kinetic energy..........   0.00000E+00
 eroded internal energy.........   0.00000E+00
 eroded hourglass energy........   0.00000E+00
 total energy...................   7.91900E+01
 total energy / initial energy..   3.45307E+00
 energy ratio w/o eroded energy.   3.45307E+00
 global x velocity..............   3.86935E-01
 global y velocity..............  -9.84481E-01
 global z velocity..............   7.21425E-03
 time per zone cycle.(nanosec)..             0


 dt of cycle   24768 is controlled by solid         100636 of part        10

 time...........................   4.96492E+00
 time step......................   2.00462E-04
 kinetic energy.................   3.79989E-01
 internal energy................   5.62820E+01
 spring and damper energy.......   1.00000E-20
 hourglass energy ..............   0.00000E+00
 system damping energy..........   0.00000E+00
 sliding interface energy.......   2.25704E+01
 external work..................   2.29759E+01
 eroded kinetic energy..........   0.00000E+00
 eroded internal energy.........   0.00000E+00
 eroded hourglass energy........   0.00000E+00
 total energy...................   7.92324E+01
 total energy / initial energy..   3.44850E+00
 energy ratio w/o eroded energy.   3.44850E+00
 global x velocity..............   2.86889E-01
 global y velocity..............  -9.58790E-01
 global z velocity..............   7.02364E-03
 time per zone cycle.(nanosec)..             0


 dt of cycle   24793 is controlled by solid         100633 of part        10

 time...........................   4.96989E+00
 time step......................   1.97938E-04
 kinetic energy.................   3.84049E-01
 internal energy................   5.62471E+01
 spring and damper energy.......   1.00000E-20
 hourglass energy ..............   0.00000E+00
 system damping energy..........   0.00000E+00
 sliding interface energy.......   2.26423E+01
 external work..................   2.30171E+01
 eroded kinetic energy..........   0.00000E+00
 eroded internal energy.........   0.00000E+00
 eroded hourglass energy........   0.00000E+00
 total energy...................   7.92735E+01
 total energy / initial energy..   3.44411E+00
 energy ratio w/o eroded energy.   3.44411E+00
 global x velocity..............   2.68215E-01
 global y velocity..............  -9.41643E-01
 global z velocity..............   5.74136E-03
 time per zone cycle.(nanosec)..             0


 dt of cycle   24818 is controlled by solid         100395 of part        10

 time...........................   4.97485E+00
 time step......................   1.97884E-04
 kinetic energy.................   3.65897E-01
 internal energy................   5.62333E+01
 spring and damper energy.......   1.00000E-20
 hourglass energy ..............   0.00000E+00
 system damping energy..........   0.00000E+00
 sliding interface energy.......   2.27147E+01
 external work..................   2.30578E+01
 eroded kinetic energy..........   0.00000E+00
 eroded internal energy.........   0.00000E+00
 eroded hourglass energy........   0.00000E+00
 total energy...................   7.93139E+01
 total energy / initial energy..   3.43979E+00
 energy ratio w/o eroded energy.   3.43979E+00
 global x velocity..............   3.39494E-01
 global y velocity..............  -9.36418E-01
 global z velocity..............   2.77921E-03
 time per zone cycle.(nanosec)..             0


 dt of cycle   24843 is controlled by solid         100395 of part        10

 time...........................   4.97980E+00
 time step......................   1.97887E-04
 kinetic energy.................   3.32334E-01
 internal energy................   5.62457E+01
 spring and damper energy.......   1.00000E-20
 hourglass energy ..............   0.00000E+00
 system damping energy..........   0.00000E+00
 sliding interface energy.......   2.27763E+01
 external work..................   2.30984E+01
 eroded kinetic energy..........   0.00000E+00
 eroded internal energy.........   0.00000E+00
 eroded hourglass energy........   0.00000E+00
 total energy...................   7.93544E+01
 total energy / initial energy..   3.43549E+00
 energy ratio w/o eroded energy.   3.43549E+00
 global x velocity..............   4.74172E-01
 global y velocity..............  -9.39556E-01
 global z velocity..............  -2.55908E-04
 time per zone cycle.(nanosec)..             0


 dt of cycle   24869 is controlled by solid         100636 of part        10

 time...........................   4.98497E+00
 time step......................   2.00473E-04
 kinetic energy.................   2.98441E-01
 internal energy................   5.62674E+01
 spring and damper energy.......   1.00000E-20
 hourglass energy ..............   0.00000E+00
 system damping energy..........   0.00000E+00
 sliding interface energy.......   2.28310E+01
 external work..................   2.31408E+01
 eroded kinetic energy..........   0.00000E+00
 eroded internal energy.........   0.00000E+00
 eroded hourglass energy........   0.00000E+00
 total energy...................   7.93969E+01
 total energy / initial energy..   3.43103E+00
 energy ratio w/o eroded energy.   3.43103E+00
 global x velocity..............   6.65763E-01
 global y velocity..............  -9.47635E-01
 global z velocity..............  -2.20816E-03
 time per zone cycle.(nanosec)..             0


 dt of cycle   24894 is controlled by solid         100633 of part        10

 time...........................   4.98996E+00
 time step......................   1.97946E-04
 kinetic energy.................   2.87742E-01
 internal energy................   5.62759E+01
 spring and damper energy.......   1.00000E-20
 hourglass energy ..............   0.00000E+00
 system damping energy..........   0.00000E+00
 sliding interface energy.......   2.28737E+01
 external work..................   2.31814E+01
 eroded kinetic energy..........   0.00000E+00
 eroded internal energy.........   0.00000E+00
 eroded hourglass energy........   0.00000E+00
 total energy...................   7.94374E+01
 total energy / initial energy..   3.42678E+00
 energy ratio w/o eroded energy.   3.42678E+00
 global x velocity..............   8.76842E-01
 global y velocity..............  -9.58973E-01
 global z velocity..............  -4.89185E-03
 time per zone cycle.(nanosec)..             0


 dt of cycle   24919 is controlled by solid         100395 of part        10

 time...........................   4.99494E+00
 time step......................   1.97885E-04
 kinetic energy.................   2.99984E-01
 internal energy................   5.62735E+01
 spring and damper energy.......   1.00000E-20
 hourglass energy ..............   0.00000E+00
 system damping energy..........   0.00000E+00
 sliding interface energy.......   2.29044E+01
 external work..................   2.32222E+01
 eroded kinetic energy..........   0.00000E+00
 eroded internal energy.........   0.00000E+00
 eroded hourglass energy........   0.00000E+00
 total energy...................   7.94779E+01
 total energy / initial energy..   3.42250E+00
 energy ratio w/o eroded energy.   3.42250E+00
 global x velocity..............   1.06272E+00
 global y velocity..............  -9.72549E-01
 global z velocity..............  -6.43349E-03
 time per zone cycle.(nanosec)..             0


 dt of cycle   24944 is controlled by solid         100393 of part        10

 time...........................   4.99989E+00
 time step......................   2.00505E-04
 kinetic energy.................   3.24442E-01
 internal energy................   5.62738E+01
 spring and damper energy.......   1.00000E-20
 hourglass energy ..............   0.00000E+00
 system damping energy..........   0.00000E+00
 sliding interface energy.......   2.29217E+01
 external work..................   2.32649E+01
 eroded kinetic energy..........   0.00000E+00
 eroded internal energy.........   0.00000E+00
 eroded hourglass energy........   0.00000E+00
 total energy...................   7.95199E+01
 total energy / initial energy..   3.41802E+00
 energy ratio w/o eroded energy.   3.41802E+00
 global x velocity..............   1.20345E+00
 global y velocity..............  -9.85961E-01
 global z velocity..............  -5.70775E-03
 time per zone cycle.(nanosec)..             0
