 Bolted Connection Type b                                                
                    ls-dyna smp d R13 R13.1.1_27_8731a0 date 07/28/2023

{BEGIN LEGEND}
 Entity #        Title
       10     Plate 1                                                                 
       20     Plate 2                                                                 
      100     Bolt                                                                    
      110     Bolt Head                                                               
      120     Bolt Nut                                                                
      101     Contact Beam Bolt (imp only)                                            
      310     Contact Beams Plates                                                    
{END LEGEND}



 time =   0.0000E+00
 mat.#=   10             inten=   0.0000E+00     kinen=   0.0000E+00     eroded_ie=   0.0000E+00     eroded_ke=   0.0000E+00
 x-mom=   0.0000E+00     y-mom=   0.0000E+00     z-mom=   0.0000E+00
 x-rbv=   0.0000E+00     y-rbv=   0.0000E+00     z-rbv=   0.0000E+00
                         hgeng=   0.0000E+00


 mat.#=   20             inten=   0.0000E+00     kinen=   0.0000E+00     eroded_ie=   0.0000E+00     eroded_ke=   0.0000E+00
 x-mom=   0.0000E+00     y-mom=   0.0000E+00     z-mom=   0.0000E+00
 x-rbv=   0.0000E+00     y-rbv=   0.0000E+00     z-rbv=   0.0000E+00
                         hgeng=   0.0000E+00


 mat.#=  100             inten=   0.0000E+00     kinen=   0.0000E+00     eroded_ie=   0.0000E+00     eroded_ke=   0.0000E+00
 x-mom=   0.0000E+00     y-mom=   0.0000E+00     z-mom=   0.0000E+00
 x-rbv=   0.0000E+00     y-rbv=   0.0000E+00     z-rbv=   0.0000E+00
                         hgeng=   0.0000E+00


 mat.#=  110             inten=   0.0000E+00     kinen=   0.0000E+00     eroded_ie=   0.0000E+00     eroded_ke=   0.0000E+00
 x-mom=   0.0000E+00     y-mom=   0.0000E+00     z-mom=   0.0000E+00
 x-rbv=   0.0000E+00     y-rbv=   0.0000E+00     z-rbv=   0.0000E+00
                         hgeng=   0.0000E+00


 mat.#=  120             inten=   0.0000E+00     kinen=   0.0000E+00     eroded_ie=   0.0000E+00     eroded_ke=   0.0000E+00
 x-mom=   0.0000E+00     y-mom=   0.0000E+00     z-mom=   0.0000E+00
 x-rbv=   0.0000E+00     y-rbv=   0.0000E+00     z-rbv=   0.0000E+00
                         hgeng=   0.0000E+00


 mat.#=  101             inten=   0.0000E+00     kinen=   0.0000E+00     eroded_ie=   0.0000E+00     eroded_ke=   0.0000E+00
 x-mom=   0.0000E+00     y-mom=   0.0000E+00     z-mom=   0.0000E+00
 x-rbv=   0.0000E+00     y-rbv=   0.0000E+00     z-rbv=   0.0000E+00
                         hgeng=   0.0000E+00


 mat.#=  310             inten=   0.0000E+00     kinen=   0.0000E+00     eroded_ie=   0.0000E+00     eroded_ke=   0.0000E+00
 x-mom=   0.0000E+00     y-mom=   0.0000E+00     z-mom=   0.0000E+00
 x-rbv=   0.0000E+00     y-rbv=   0.0000E+00     z-rbv=   0.0000E+00
                         hgeng=   0.0000E+00




 time =   4.8730E-03
 mat.#=   10             inten=   0.0000E+00     kinen=   0.0000E+00     eroded_ie=   0.0000E+00     eroded_ke=   0.0000E+00
 x-mom=   0.0000E+00     y-mom=   0.0000E+00     z-mom=   0.0000E+00
 x-rbv=   0.0000E+00     y-rbv=   0.0000E+00     z-rbv=   0.0000E+00
                         hgeng=   0.0000E+00


 mat.#=   20             inten=   0.0000E+00     kinen=   0.0000E+00     eroded_ie=   0.0000E+00     eroded_ke=   0.0000E+00
 x-mom=   0.0000E+00     y-mom=   0.0000E+00     z-mom=   0.0000E+00
 x-rbv=   0.0000E+00     y-rbv=   0.0000E+00     z-rbv=   0.0000E+00
                         hgeng=   0.0000E+00


 mat.#=  100             inten=   1.1260E-05     kinen=   4.1153E-06     eroded_ie=   0.0000E+00     eroded_ke=   0.0000E+00
 x-mom=  -2.4065E-13     y-mom=  -3.8549E-13     z-mom=   3.0521E-13
 x-rbv=  -3.0978E-11     y-rbv=  -4.9623E-11     z-rbv=   3.9289E-11
                         hgeng=   0.0000E+00


 mat.#=  110             inten=   1.2170E-06     kinen=   4.8640E-07     eroded_ie=   0.0000E+00     eroded_ke=   0.0000E+00
 x-mom=   2.4730E-10     y-mom=   7.4217E-05     z-mom=  -5.4175E-13
 x-rbv=   1.9668E-08     y-rbv=   5.9024E-03     z-rbv=  -4.3084E-11
                         hgeng=   0.0000E+00


 mat.#=  120             inten=   1.2170E-06     kinen=   4.8640E-07     eroded_ie=   0.0000E+00     eroded_ke=   0.0000E+00
 x-mom=  -2.4682E-10     y-mom=  -7.4217E-05     z-mom=  -6.8676E-14
 x-rbv=  -1.9629E-08     y-rbv=  -5.9023E-03     z-rbv=  -5.4617E-12
                         hgeng=   0.0000E+00


 mat.#=  101             inten=   0.0000E+00     kinen=   0.0000E+00     eroded_ie=   0.0000E+00     eroded_ke=   0.0000E+00
 x-mom=   0.0000E+00     y-mom=   0.0000E+00     z-mom=   0.0000E+00
 x-rbv=   0.0000E+00     y-rbv=   0.0000E+00     z-rbv=   0.0000E+00
                         hgeng=   0.0000E+00


 mat.#=  310             inten=   0.0000E+00     kinen=   0.0000E+00     eroded_ie=   0.0000E+00     eroded_ke=   0.0000E+00
 x-mom=   0.0000E+00     y-mom=   0.0000E+00     z-mom=   0.0000E+00
 x-rbv=   0.0000E+00     y-rbv=   0.0000E+00     z-rbv=   0.0000E+00
                         hgeng=   0.0000E+00




 time =   9.9579E-03
 mat.#=   10             inten=   0.0000E+00     kinen=   0.0000E+00     eroded_ie=   0.0000E+00     eroded_ke=   0.0000E+00
 x-mom=   0.0000E+00     y-mom=   0.0000E+00     z-mom=   0.0000E+00
 x-rbv=   0.0000E+00     y-rbv=   0.0000E+00     z-rbv=   0.0000E+00
                         hgeng=   0.0000E+00


 mat.#=   20             inten=   0.0000E+00     kinen=   0.0000E+00     eroded_ie=   0.0000E+00     eroded_ke=   0.0000E+00
 x-mom=   0.0000E+00     y-mom=   0.0000E+00     z-mom=   0.0000E+00
 x-rbv=   0.0000E+00     y-rbv=   0.0000E+00     z-rbv=   0.0000E+00
                         hgeng=   0.0000E+00


 mat.#=  100             inten=   1.4234E-04     kinen=   3.2708E-05     eroded_ie=   0.0000E+00     eroded_ke=   0.0000E+00
 x-mom=  -7.3085E-13     y-mom=  -9.0853E-13     z-mom=   3.4663E-12
 x-rbv=  -9.4081E-11     y-rbv=  -1.1695E-10     z-rbv=   4.4621E-10
                         hgeng=   0.0000E+00


 mat.#=  110             inten=   2.5116E-05     kinen=   1.9153E-05     eroded_ie=   0.0000E+00     eroded_ke=   0.0000E+00
 x-mom=   1.4769E-09     y-mom=   6.8463E-04     z-mom=  -7.7024E-12
 x-rbv=   1.1745E-07     y-rbv=   5.4447E-02     z-rbv=  -6.1256E-10
                         hgeng=   0.0000E+00


 mat.#=  120             inten=   2.5116E-05     kinen=   1.9153E-05     eroded_ie=   0.0000E+00     eroded_ke=   0.0000E+00
 x-mom=  -1.4754E-09     y-mom=  -6.8463E-04     z-mom=   7.6940E-13
 x-rbv=  -1.1734E-07     y-rbv=  -5.4447E-02     z-rbv=   6.1189E-11
                         hgeng=   0.0000E+00


 mat.#=  101             inten=   0.0000E+00     kinen=   0.0000E+00     eroded_ie=   0.0000E+00     eroded_ke=   0.0000E+00
 x-mom=   0.0000E+00     y-mom=   0.0000E+00     z-mom=   0.0000E+00
 x-rbv=   0.0000E+00     y-rbv=   0.0000E+00     z-rbv=   0.0000E+00
                         hgeng=   0.0000E+00


 mat.#=  310             inten=   0.0000E+00     kinen=   0.0000E+00     eroded_ie=   0.0000E+00     eroded_ke=   0.0000E+00
 x-mom=   0.0000E+00     y-mom=   0.0000E+00     z-mom=   0.0000E+00
 x-rbv=   0.0000E+00     y-rbv=   0.0000E+00     z-rbv=   0.0000E+00
                         hgeng=   0.0000E+00




 time =   1.4831E-02
 mat.#=   10             inten=   0.0000E+00     kinen=   0.0000E+00     eroded_ie=   0.0000E+00     eroded_ke=   0.0000E+00
 x-mom=   0.0000E+00     y-mom=   0.0000E+00     z-mom=   0.0000E+00
 x-rbv=   0.0000E+00     y-rbv=   0.0000E+00     z-rbv=   0.0000E+00
                         hgeng=   0.0000E+00


 mat.#=   20             inten=   0.0000E+00     kinen=   0.0000E+00     eroded_ie=   0.0000E+00     eroded_ke=   0.0000E+00
 x-mom=   0.0000E+00     y-mom=   0.0000E+00     z-mom=   0.0000E+00
 x-rbv=   0.0000E+00     y-rbv=   0.0000E+00     z-rbv=   0.0000E+00
                         hgeng=   0.0000E+00


 mat.#=  100             inten=   5.2876E-04     kinen=   9.4144E-05     eroded_ie=   0.0000E+00     eroded_ke=   0.0000E+00
 x-mom=   3.4209E-13     y-mom=   5.1649E-11     z-mom=  -7.8414E-13
 x-rbv=   4.4036E-11     y-rbv=   6.6486E-09     z-rbv=  -1.0094E-10
                         hgeng=   0.0000E+00


 mat.#=  110             inten=   4.8268E-05     kinen=   1.4546E-04     eroded_ie=   0.0000E+00     eroded_ke=   0.0000E+00
 x-mom=   1.3025E-09     y-mom=   1.9126E-03     z-mom=  -3.2865E-12
 x-rbv=   1.0359E-07     y-rbv=   1.5211E-01     z-rbv=  -2.6137E-10
                         hgeng=   0.0000E+00


 mat.#=  120             inten=   4.8268E-05     kinen=   1.4546E-04     eroded_ie=   0.0000E+00     eroded_ke=   0.0000E+00
 x-mom=  -1.3032E-09     y-mom=  -1.9126E-03     z-mom=   4.8550E-12
 x-rbv=  -1.0364E-07     y-rbv=  -1.5211E-01     z-rbv=   3.8611E-10
                         hgeng=   0.0000E+00


 mat.#=  101             inten=   0.0000E+00     kinen=   0.0000E+00     eroded_ie=   0.0000E+00     eroded_ke=   0.0000E+00
 x-mom=   0.0000E+00     y-mom=   0.0000E+00     z-mom=   0.0000E+00
 x-rbv=   0.0000E+00     y-rbv=   0.0000E+00     z-rbv=   0.0000E+00
                         hgeng=   0.0000E+00


 mat.#=  310             inten=   0.0000E+00     kinen=   0.0000E+00     eroded_ie=   0.0000E+00     eroded_ke=   0.0000E+00
 x-mom=   0.0000E+00     y-mom=   0.0000E+00     z-mom=   0.0000E+00
 x-rbv=   0.0000E+00     y-rbv=   0.0000E+00     z-rbv=   0.0000E+00
                         hgeng=   0.0000E+00




 time =   1.9916E-02
 mat.#=   10             inten=   0.0000E+00     kinen=   0.0000E+00     eroded_ie=   0.0000E+00     eroded_ke=   0.0000E+00
 x-mom=   0.0000E+00     y-mom=   0.0000E+00     z-mom=   0.0000E+00
 x-rbv=   0.0000E+00     y-rbv=   0.0000E+00     z-rbv=   0.0000E+00
                         hgeng=   0.0000E+00


 mat.#=   20             inten=   0.0000E+00     kinen=   0.0000E+00     eroded_ie=   0.0000E+00     eroded_ke=   0.0000E+00
 x-mom=   0.0000E+00     y-mom=   0.0000E+00     z-mom=   0.0000E+00
 x-rbv=   0.0000E+00     y-rbv=   0.0000E+00     z-rbv=   0.0000E+00
                         hgeng=   0.0000E+00


 mat.#=  100             inten=   1.5098E-03     kinen=   3.2256E-04     eroded_ie=   0.0000E+00     eroded_ke=   0.0000E+00
 x-mom=  -3.4664E-13     y-mom=   1.3894E-10     z-mom=   1.1067E-12
 x-rbv=  -4.4622E-11     y-rbv=   1.7886E-08     z-rbv=   1.4246E-10
                         hgeng=   0.0000E+00


 mat.#=  110             inten=   5.6608E-05     kinen=   4.6301E-04     eroded_ie=   0.0000E+00     eroded_ke=   0.0000E+00
 x-mom=   5.6524E-10     y-mom=   3.4118E-03     z-mom=   7.6655E-12
 x-rbv=   4.4952E-08     y-rbv=   2.7133E-01     z-rbv=   6.0963E-10
                         hgeng=   0.0000E+00


 mat.#=  120             inten=   5.6608E-05     kinen=   4.6301E-04     eroded_ie=   0.0000E+00     eroded_ke=   0.0000E+00
 x-mom=  -5.6455E-10     y-mom=  -3.4118E-03     z-mom=  -9.8796E-12
 x-rbv=  -4.4897E-08     y-rbv=  -2.7133E-01     z-rbv=  -7.8570E-10
                         hgeng=   0.0000E+00


 mat.#=  101             inten=   0.0000E+00     kinen=   0.0000E+00     eroded_ie=   0.0000E+00     eroded_ke=   0.0000E+00
 x-mom=   0.0000E+00     y-mom=   0.0000E+00     z-mom=   0.0000E+00
 x-rbv=   0.0000E+00     y-rbv=   0.0000E+00     z-rbv=   0.0000E+00
                         hgeng=   0.0000E+00


 mat.#=  310             inten=   0.0000E+00     kinen=   0.0000E+00     eroded_ie=   0.0000E+00     eroded_ke=   0.0000E+00
 x-mom=   0.0000E+00     y-mom=   0.0000E+00     z-mom=   0.0000E+00
 x-rbv=   0.0000E+00     y-rbv=   0.0000E+00     z-rbv=   0.0000E+00
                         hgeng=   0.0000E+00




 time =   2.4789E-02
 mat.#=   10             inten=   0.0000E+00     kinen=   0.0000E+00     eroded_ie=   0.0000E+00     eroded_ke=   0.0000E+00
 x-mom=   0.0000E+00     y-mom=   0.0000E+00     z-mom=   0.0000E+00
 x-rbv=   0.0000E+00     y-rbv=   0.0000E+00     z-rbv=   0.0000E+00
                         hgeng=   0.0000E+00


 mat.#=   20             inten=   0.0000E+00     kinen=   0.0000E+00     eroded_ie=   0.0000E+00     eroded_ke=   0.0000E+00
 x-mom=   0.0000E+00     y-mom=   0.0000E+00     z-mom=   0.0000E+00
 x-rbv=   0.0000E+00     y-rbv=   0.0000E+00     z-rbv=   0.0000E+00
                         hgeng=   0.0000E+00


 mat.#=  100             inten=   3.4832E-03     kinen=   8.1023E-04     eroded_ie=   0.0000E+00     eroded_ke=   0.0000E+00
 x-mom=  -6.9784E-13     y-mom=   1.4825E-10     z-mom=   2.9671E-12
 x-rbv=  -8.9832E-11     y-rbv=   1.9084E-08     z-rbv=   3.8195E-10
                         hgeng=   0.0000E+00


 mat.#=  110             inten=   1.1886E-04     kinen=   1.0858E-03     eroded_ie=   0.0000E+00     eroded_ke=   0.0000E+00
 x-mom=  -4.2948E-10     y-mom=   5.2238E-03     z-mom=   5.2560E-11
 x-rbv=  -3.4155E-08     y-rbv=   4.1544E-01     z-rbv=   4.1800E-09
                         hgeng=   0.0000E+00


 mat.#=  120             inten=   1.1886E-04     kinen=   1.0858E-03     eroded_ie=   0.0000E+00     eroded_ke=   0.0000E+00
 x-mom=   4.3087E-10     y-mom=  -5.2238E-03     z-mom=  -5.8498E-11
 x-rbv=   3.4266E-08     y-rbv=  -4.1544E-01     z-rbv=  -4.6523E-09
                         hgeng=   0.0000E+00


 mat.#=  101             inten=   0.0000E+00     kinen=   0.0000E+00     eroded_ie=   0.0000E+00     eroded_ke=   0.0000E+00
 x-mom=   0.0000E+00     y-mom=   0.0000E+00     z-mom=   0.0000E+00
 x-rbv=   0.0000E+00     y-rbv=   0.0000E+00     z-rbv=   0.0000E+00
                         hgeng=   0.0000E+00


 mat.#=  310             inten=   0.0000E+00     kinen=   0.0000E+00     eroded_ie=   0.0000E+00     eroded_ke=   0.0000E+00
 x-mom=   0.0000E+00     y-mom=   0.0000E+00     z-mom=   0.0000E+00
 x-rbv=   0.0000E+00     y-rbv=   0.0000E+00     z-rbv=   0.0000E+00
                         hgeng=   0.0000E+00




 time =   2.9874E-02
 mat.#=   10             inten=   0.0000E+00     kinen=   0.0000E+00     eroded_ie=   0.0000E+00     eroded_ke=   0.0000E+00
 x-mom=   0.0000E+00     y-mom=   0.0000E+00     z-mom=   0.0000E+00
 x-rbv=   0.0000E+00     y-rbv=   0.0000E+00     z-rbv=   0.0000E+00
                         hgeng=   0.0000E+00


 mat.#=   20             inten=   0.0000E+00     kinen=   0.0000E+00     eroded_ie=   0.0000E+00     eroded_ke=   0.0000E+00
 x-mom=   0.0000E+00     y-mom=   0.0000E+00     z-mom=   0.0000E+00
 x-rbv=   0.0000E+00     y-rbv=   0.0000E+00     z-rbv=   0.0000E+00
                         hgeng=   0.0000E+00


 mat.#=  100             inten=   7.0100E-03     kinen=   1.5593E-03     eroded_ie=   0.0000E+00     eroded_ke=   0.0000E+00
 x-mom=   1.8998E-13     y-mom=   2.1738E-10     z-mom=  -1.7359E-12
 x-rbv=   2.4455E-11     y-rbv=   2.7983E-08     z-rbv=  -2.2346E-10
                         hgeng=   0.0000E+00


 mat.#=  110             inten=   1.9033E-04     kinen=   2.4412E-03     eroded_ie=   0.0000E+00     eroded_ke=   0.0000E+00
 x-mom=  -2.2755E-10     y-mom=   7.8352E-03     z-mom=   1.4337E-10
 x-rbv=  -1.8096E-08     y-rbv=   6.2312E-01     z-rbv=   1.1402E-08
                         hgeng=   0.0000E+00


 mat.#=  120             inten=   1.9033E-04     kinen=   2.4412E-03     eroded_ie=   0.0000E+00     eroded_ke=   0.0000E+00
 x-mom=   2.2716E-10     y-mom=  -7.8352E-03     z-mom=  -1.3989E-10
 x-rbv=   1.8066E-08     y-rbv=  -6.2312E-01     z-rbv=  -1.1126E-08
                         hgeng=   0.0000E+00


 mat.#=  101             inten=   0.0000E+00     kinen=   0.0000E+00     eroded_ie=   0.0000E+00     eroded_ke=   0.0000E+00
 x-mom=   0.0000E+00     y-mom=   0.0000E+00     z-mom=   0.0000E+00
 x-rbv=   0.0000E+00     y-rbv=   0.0000E+00     z-rbv=   0.0000E+00
                         hgeng=   0.0000E+00


 mat.#=  310             inten=   0.0000E+00     kinen=   0.0000E+00     eroded_ie=   0.0000E+00     eroded_ke=   0.0000E+00
 x-mom=   0.0000E+00     y-mom=   0.0000E+00     z-mom=   0.0000E+00
 x-rbv=   0.0000E+00     y-rbv=   0.0000E+00     z-rbv=   0.0000E+00
                         hgeng=   0.0000E+00




 time =   3.4959E-02
 mat.#=   10             inten=   0.0000E+00     kinen=   0.0000E+00     eroded_ie=   0.0000E+00     eroded_ke=   0.0000E+00
 x-mom=   0.0000E+00     y-mom=   0.0000E+00     z-mom=   0.0000E+00
 x-rbv=   0.0000E+00     y-rbv=   0.0000E+00     z-rbv=   0.0000E+00
                         hgeng=   0.0000E+00


 mat.#=   20             inten=   0.0000E+00     kinen=   0.0000E+00     eroded_ie=   0.0000E+00     eroded_ke=   0.0000E+00
 x-mom=   0.0000E+00     y-mom=   0.0000E+00     z-mom=   0.0000E+00
 x-rbv=   0.0000E+00     y-rbv=   0.0000E+00     z-rbv=   0.0000E+00
                         hgeng=   0.0000E+00


 mat.#=  100             inten=   1.2510E-02     kinen=   2.9025E-03     eroded_ie=   0.0000E+00     eroded_ke=   0.0000E+00
 x-mom=  -1.7210E-13     y-mom=   4.0714E-10     z-mom=   1.1426E-12
 x-rbv=  -2.2154E-11     y-rbv=   5.2410E-08     z-rbv=   1.4709E-10
                         hgeng=   0.0000E+00


 mat.#=  110             inten=   2.0095E-04     kinen=   4.6129E-03     eroded_ie=   0.0000E+00     eroded_ke=   0.0000E+00
 x-mom=   4.1762E-11     y-mom=   1.0771E-02     z-mom=   2.4333E-10
 x-rbv=   3.3212E-09     y-rbv=   8.5657E-01     z-rbv=   1.9352E-08
                         hgeng=   0.0000E+00


 mat.#=  120             inten=   2.0095E-04     kinen=   4.6129E-03     eroded_ie=   0.0000E+00     eroded_ke=   0.0000E+00
 x-mom=  -4.1417E-11     y-mom=  -1.0771E-02     z-mom=  -2.4562E-10
 x-rbv=  -3.2938E-09     y-rbv=  -8.5657E-01     z-rbv=  -1.9534E-08
                         hgeng=   0.0000E+00


 mat.#=  101             inten=   0.0000E+00     kinen=   0.0000E+00     eroded_ie=   0.0000E+00     eroded_ke=   0.0000E+00
 x-mom=   0.0000E+00     y-mom=   0.0000E+00     z-mom=   0.0000E+00
 x-rbv=   0.0000E+00     y-rbv=   0.0000E+00     z-rbv=   0.0000E+00
                         hgeng=   0.0000E+00


 mat.#=  310             inten=   0.0000E+00     kinen=   0.0000E+00     eroded_ie=   0.0000E+00     eroded_ke=   0.0000E+00
 x-mom=   0.0000E+00     y-mom=   0.0000E+00     z-mom=   0.0000E+00
 x-rbv=   0.0000E+00     y-rbv=   0.0000E+00     z-rbv=   0.0000E+00
                         hgeng=   0.0000E+00




 time =   3.9832E-02
 mat.#=   10             inten=   0.0000E+00     kinen=   0.0000E+00     eroded_ie=   0.0000E+00     eroded_ke=   0.0000E+00
 x-mom=   0.0000E+00     y-mom=   0.0000E+00     z-mom=   0.0000E+00
 x-rbv=   0.0000E+00     y-rbv=   0.0000E+00     z-rbv=   0.0000E+00
                         hgeng=   0.0000E+00


 mat.#=   20             inten=   0.0000E+00     kinen=   0.0000E+00     eroded_ie=   0.0000E+00     eroded_ke=   0.0000E+00
 x-mom=   0.0000E+00     y-mom=   0.0000E+00     z-mom=   0.0000E+00
 x-rbv=   0.0000E+00     y-rbv=   0.0000E+00     z-rbv=   0.0000E+00
                         hgeng=   0.0000E+00


 mat.#=  100             inten=   2.0304E-02     kinen=   5.0518E-03     eroded_ie=   0.0000E+00     eroded_ke=   0.0000E+00
 x-mom=  -6.9315E-13     y-mom=   4.5851E-10     z-mom=   2.8523E-12
 x-rbv=  -8.9227E-11     y-rbv=   5.9023E-08     z-rbv=   3.6716E-10
                         hgeng=   0.0000E+00


 mat.#=  110             inten=   2.8574E-04     kinen=   7.6335E-03     eroded_ie=   0.0000E+00     eroded_ke=   0.0000E+00
 x-mom=   3.3237E-10     y-mom=   1.3855E-02     z-mom=   3.2467E-10
 x-rbv=   2.6433E-08     y-rbv=   1.1018E+00     z-rbv=   2.5820E-08
                         hgeng=   0.0000E+00


 mat.#=  120             inten=   2.8574E-04     kinen=   7.6335E-03     eroded_ie=   0.0000E+00     eroded_ke=   0.0000E+00
 x-mom=  -3.3098E-10     y-mom=  -1.3855E-02     z-mom=  -3.3038E-10
 x-rbv=  -2.6322E-08     y-rbv=  -1.1018E+00     z-rbv=  -2.6275E-08
                         hgeng=   0.0000E+00


 mat.#=  101             inten=   0.0000E+00     kinen=   0.0000E+00     eroded_ie=   0.0000E+00     eroded_ke=   0.0000E+00
 x-mom=   0.0000E+00     y-mom=   0.0000E+00     z-mom=   0.0000E+00
 x-rbv=   0.0000E+00     y-rbv=   0.0000E+00     z-rbv=   0.0000E+00
                         hgeng=   0.0000E+00


 mat.#=  310             inten=   0.0000E+00     kinen=   0.0000E+00     eroded_ie=   0.0000E+00     eroded_ke=   0.0000E+00
 x-mom=   0.0000E+00     y-mom=   0.0000E+00     z-mom=   0.0000E+00
 x-rbv=   0.0000E+00     y-rbv=   0.0000E+00     z-rbv=   0.0000E+00
                         hgeng=   0.0000E+00




 time =   4.4916E-02
 mat.#=   10             inten=   0.0000E+00     kinen=   0.0000E+00     eroded_ie=   0.0000E+00     eroded_ke=   0.0000E+00
 x-mom=   0.0000E+00     y-mom=   0.0000E+00     z-mom=   0.0000E+00
 x-rbv=   0.0000E+00     y-rbv=   0.0000E+00     z-rbv=   0.0000E+00
                         hgeng=   0.0000E+00


 mat.#=   20             inten=   0.0000E+00     kinen=   0.0000E+00     eroded_ie=   0.0000E+00     eroded_ke=   0.0000E+00
 x-mom=   0.0000E+00     y-mom=   0.0000E+00     z-mom=   0.0000E+00
 x-rbv=   0.0000E+00     y-rbv=   0.0000E+00     z-rbv=   0.0000E+00
                         hgeng=   0.0000E+00


 mat.#=  100             inten=   3.1575E-02     kinen=   7.9533E-03     eroded_ie=   0.0000E+00     eroded_ke=   0.0000E+00
 x-mom=  -2.9087E-13     y-mom=   5.0321E-10     z-mom=   1.8419E-12
 x-rbv=  -3.7442E-11     y-rbv=   6.4777E-08     z-rbv=   2.3710E-10
                         hgeng=   0.0000E+00


 mat.#=  110             inten=   4.1896E-04     kinen=   1.2569E-02     eroded_ie=   0.0000E+00     eroded_ke=   0.0000E+00
 x-mom=  -6.1602E-10     y-mom=   1.7779E-02     z-mom=   3.9062E-10
 x-rbv=  -4.8991E-08     y-rbv=   1.4139E+00     z-rbv=   3.1065E-08
                         hgeng=   0.0000E+00


 mat.#=  120             inten=   4.1896E-04     kinen=   1.2569E-02     eroded_ie=   0.0000E+00     eroded_ke=   0.0000E+00
 x-mom=   6.1660E-10     y-mom=  -1.7779E-02     z-mom=  -3.9431E-10
 x-rbv=   4.9037E-08     y-rbv=  -1.4139E+00     z-rbv=  -3.1359E-08
                         hgeng=   0.0000E+00


 mat.#=  101             inten=   0.0000E+00     kinen=   0.0000E+00     eroded_ie=   0.0000E+00     eroded_ke=   0.0000E+00
 x-mom=   0.0000E+00     y-mom=   0.0000E+00     z-mom=   0.0000E+00
 x-rbv=   0.0000E+00     y-rbv=   0.0000E+00     z-rbv=   0.0000E+00
                         hgeng=   0.0000E+00


 mat.#=  310             inten=   0.0000E+00     kinen=   0.0000E+00     eroded_ie=   0.0000E+00     eroded_ke=   0.0000E+00
 x-mom=   0.0000E+00     y-mom=   0.0000E+00     z-mom=   0.0000E+00
 x-rbv=   0.0000E+00     y-rbv=   0.0000E+00     z-rbv=   0.0000E+00
                         hgeng=   0.0000E+00




 time =   4.9789E-02
 mat.#=   10             inten=   0.0000E+00     kinen=   0.0000E+00     eroded_ie=   0.0000E+00     eroded_ke=   0.0000E+00
 x-mom=   0.0000E+00     y-mom=   0.0000E+00     z-mom=   0.0000E+00
 x-rbv=   0.0000E+00     y-rbv=   0.0000E+00     z-rbv=   0.0000E+00
                         hgeng=   0.0000E+00


 mat.#=   20             inten=   0.0000E+00     kinen=   0.0000E+00     eroded_ie=   0.0000E+00     eroded_ke=   0.0000E+00
 x-mom=   0.0000E+00     y-mom=   0.0000E+00     z-mom=   0.0000E+00
 x-rbv=   0.0000E+00     y-rbv=   0.0000E+00     z-rbv=   0.0000E+00
                         hgeng=   0.0000E+00


 mat.#=  100             inten=   4.5788E-02     kinen=   1.1824E-02     eroded_ie=   0.0000E+00     eroded_ke=   0.0000E+00
 x-mom=   3.6025E-13     y-mom=   7.6720E-10     z-mom=  -2.3992E-12
 x-rbv=   4.6373E-11     y-rbv=   9.8760E-08     z-rbv=  -3.0884E-10
                         hgeng=   0.0000E+00


 mat.#=  110             inten=   4.4153E-04     kinen=   1.9175E-02     eroded_ie=   0.0000E+00     eroded_ke=   0.0000E+00
 x-mom=  -1.5621E-09     y-mom=   2.1960E-02     z-mom=   4.4654E-10
 x-rbv=  -1.2423E-07     y-rbv=   1.7464E+00     z-rbv=   3.5512E-08
                         hgeng=   0.0000E+00


 mat.#=  120             inten=   4.4153E-04     kinen=   1.9175E-02     eroded_ie=   0.0000E+00     eroded_ke=   0.0000E+00
 x-mom=   1.5614E-09     y-mom=  -2.1960E-02     z-mom=  -4.4172E-10
 x-rbv=   1.2417E-07     y-rbv=  -1.7464E+00     z-rbv=  -3.5129E-08
                         hgeng=   0.0000E+00


 mat.#=  101             inten=   0.0000E+00     kinen=   0.0000E+00     eroded_ie=   0.0000E+00     eroded_ke=   0.0000E+00
 x-mom=   0.0000E+00     y-mom=   0.0000E+00     z-mom=   0.0000E+00
 x-rbv=   0.0000E+00     y-rbv=   0.0000E+00     z-rbv=   0.0000E+00
                         hgeng=   0.0000E+00


 mat.#=  310             inten=   0.0000E+00     kinen=   0.0000E+00     eroded_ie=   0.0000E+00     eroded_ke=   0.0000E+00
 x-mom=   0.0000E+00     y-mom=   0.0000E+00     z-mom=   0.0000E+00
 x-rbv=   0.0000E+00     y-rbv=   0.0000E+00     z-rbv=   0.0000E+00
                         hgeng=   0.0000E+00




 time =   5.4874E-02
 mat.#=   10             inten=   0.0000E+00     kinen=   0.0000E+00     eroded_ie=   0.0000E+00     eroded_ke=   0.0000E+00
 x-mom=   0.0000E+00     y-mom=   0.0000E+00     z-mom=   0.0000E+00
 x-rbv=   0.0000E+00     y-rbv=   0.0000E+00     z-rbv=   0.0000E+00
                         hgeng=   0.0000E+00


 mat.#=   20             inten=   0.0000E+00     kinen=   0.0000E+00     eroded_ie=   0.0000E+00     eroded_ke=   0.0000E+00
 x-mom=   0.0000E+00     y-mom=   0.0000E+00     z-mom=   0.0000E+00
 x-rbv=   0.0000E+00     y-rbv=   0.0000E+00     z-rbv=   0.0000E+00
                         hgeng=   0.0000E+00


 mat.#=  100             inten=   6.4797E-02     kinen=   1.7760E-02     eroded_ie=   0.0000E+00     eroded_ke=   0.0000E+00
 x-mom=  -8.9148E-13     y-mom=   9.2891E-10     z-mom=   3.3400E-12
 x-rbv=  -1.1476E-10     y-rbv=   1.1958E-07     z-rbv=   4.2994E-10
                         hgeng=   0.0000E+00


 mat.#=  110             inten=   5.2690E-04     kinen=   2.7988E-02     eroded_ie=   0.0000E+00     eroded_ke=   0.0000E+00
 x-mom=  -2.1459E-09     y-mom=   2.6530E-02     z-mom=   5.1428E-10
 x-rbv=  -1.7066E-07     y-rbv=   2.1099E+00     z-rbv=   4.0900E-08
                         hgeng=   0.0000E+00


 mat.#=  120             inten=   5.2690E-04     kinen=   2.7988E-02     eroded_ie=   0.0000E+00     eroded_ke=   0.0000E+00
 x-mom=   2.1476E-09     y-mom=  -2.6530E-02     z-mom=  -5.2101E-10
 x-rbv=   1.7080E-07     y-rbv=  -2.1099E+00     z-rbv=  -4.1435E-08
                         hgeng=   0.0000E+00


 mat.#=  101             inten=   0.0000E+00     kinen=   0.0000E+00     eroded_ie=   0.0000E+00     eroded_ke=   0.0000E+00
 x-mom=   0.0000E+00     y-mom=   0.0000E+00     z-mom=   0.0000E+00
 x-rbv=   0.0000E+00     y-rbv=   0.0000E+00     z-rbv=   0.0000E+00
                         hgeng=   0.0000E+00


 mat.#=  310             inten=   0.0000E+00     kinen=   0.0000E+00     eroded_ie=   0.0000E+00     eroded_ke=   0.0000E+00
 x-mom=   0.0000E+00     y-mom=   0.0000E+00     z-mom=   0.0000E+00
 x-rbv=   0.0000E+00     y-rbv=   0.0000E+00     z-rbv=   0.0000E+00
                         hgeng=   0.0000E+00




 time =   5.9959E-02
 mat.#=   10             inten=   0.0000E+00     kinen=   0.0000E+00     eroded_ie=   0.0000E+00     eroded_ke=   0.0000E+00
 x-mom=   0.0000E+00     y-mom=   0.0000E+00     z-mom=   0.0000E+00
 x-rbv=   0.0000E+00     y-rbv=   0.0000E+00     z-rbv=   0.0000E+00
                         hgeng=   0.0000E+00


 mat.#=   20             inten=   0.0000E+00     kinen=   0.0000E+00     eroded_ie=   0.0000E+00     eroded_ke=   0.0000E+00
 x-mom=   0.0000E+00     y-mom=   0.0000E+00     z-mom=   0.0000E+00
 x-rbv=   0.0000E+00     y-rbv=   0.0000E+00     z-rbv=   0.0000E+00
                         hgeng=   0.0000E+00


 mat.#=  100             inten=   8.8528E-02     kinen=   2.5113E-02     eroded_ie=   0.0000E+00     eroded_ke=   0.0000E+00
 x-mom=  -3.7060E-13     y-mom=   9.3600E-10     z-mom=   1.8011E-12
 x-rbv=  -4.7706E-11     y-rbv=   1.2049E-07     z-rbv=   2.3186E-10
                         hgeng=   0.0000E+00


 mat.#=  110             inten=   7.2416E-04     kinen=   4.0091E-02     eroded_ie=   0.0000E+00     eroded_ke=   0.0000E+00
 x-mom=  -1.6070E-09     y-mom=   3.1752E-02     z-mom=   6.2981E-10
 x-rbv=  -1.2780E-07     y-rbv=   2.5252E+00     z-rbv=   5.0088E-08
                         hgeng=   0.0000E+00


 mat.#=  120             inten=   7.2416E-04     kinen=   4.0091E-02     eroded_ie=   0.0000E+00     eroded_ke=   0.0000E+00
 x-mom=   1.6078E-09     y-mom=  -3.1752E-02     z-mom=  -6.3344E-10
 x-rbv=   1.2786E-07     y-rbv=  -2.5252E+00     z-rbv=  -5.0376E-08
                         hgeng=   0.0000E+00


 mat.#=  101             inten=   0.0000E+00     kinen=   0.0000E+00     eroded_ie=   0.0000E+00     eroded_ke=   0.0000E+00
 x-mom=   0.0000E+00     y-mom=   0.0000E+00     z-mom=   0.0000E+00
 x-rbv=   0.0000E+00     y-rbv=   0.0000E+00     z-rbv=   0.0000E+00
                         hgeng=   0.0000E+00


 mat.#=  310             inten=   0.0000E+00     kinen=   0.0000E+00     eroded_ie=   0.0000E+00     eroded_ke=   0.0000E+00
 x-mom=   0.0000E+00     y-mom=   0.0000E+00     z-mom=   0.0000E+00
 x-rbv=   0.0000E+00     y-rbv=   0.0000E+00     z-rbv=   0.0000E+00
                         hgeng=   0.0000E+00




 time =   6.4832E-02
 mat.#=   10             inten=   0.0000E+00     kinen=   0.0000E+00     eroded_ie=   0.0000E+00     eroded_ke=   0.0000E+00
 x-mom=   0.0000E+00     y-mom=   0.0000E+00     z-mom=   0.0000E+00
 x-rbv=   0.0000E+00     y-rbv=   0.0000E+00     z-rbv=   0.0000E+00
                         hgeng=   0.0000E+00


 mat.#=   20             inten=   0.0000E+00     kinen=   0.0000E+00     eroded_ie=   0.0000E+00     eroded_ke=   0.0000E+00
 x-mom=   0.0000E+00     y-mom=   0.0000E+00     z-mom=   0.0000E+00
 x-rbv=   0.0000E+00     y-rbv=   0.0000E+00     z-rbv=   0.0000E+00
                         hgeng=   0.0000E+00


 mat.#=  100             inten=   1.1594E-01     kinen=   3.3822E-02     eroded_ie=   0.0000E+00     eroded_ke=   0.0000E+00
 x-mom=   2.5245E-13     y-mom=   1.2204E-09     z-mom=  -1.4544E-12
 x-rbv=   3.2497E-11     y-rbv=   1.5710E-07     z-rbv=  -1.8722E-10
                         hgeng=   0.0000E+00


 mat.#=  110             inten=   7.8368E-04     kinen=   5.5280E-02     eroded_ie=   0.0000E+00     eroded_ke=   0.0000E+00
 x-mom=  -1.7208E-09     y-mom=   3.7285E-02     z-mom=   7.7483E-10
 x-rbv=  -1.3685E-07     y-rbv=   2.9652E+00     z-rbv=   6.1621E-08
                         hgeng=   0.0000E+00


 mat.#=  120             inten=   7.8368E-04     kinen=   5.5280E-02     eroded_ie=   0.0000E+00     eroded_ke=   0.0000E+00
 x-mom=   1.7203E-09     y-mom=  -3.7285E-02     z-mom=  -7.7189E-10
 x-rbv=   1.3681E-07     y-rbv=  -2.9652E+00     z-rbv=  -6.1387E-08
                         hgeng=   0.0000E+00


 mat.#=  101             inten=   0.0000E+00     kinen=   0.0000E+00     eroded_ie=   0.0000E+00     eroded_ke=   0.0000E+00
 x-mom=   0.0000E+00     y-mom=   0.0000E+00     z-mom=   0.0000E+00
 x-rbv=   0.0000E+00     y-rbv=   0.0000E+00     z-rbv=   0.0000E+00
                         hgeng=   0.0000E+00


 mat.#=  310             inten=   0.0000E+00     kinen=   0.0000E+00     eroded_ie=   0.0000E+00     eroded_ke=   0.0000E+00
 x-mom=   0.0000E+00     y-mom=   0.0000E+00     z-mom=   0.0000E+00
 x-rbv=   0.0000E+00     y-rbv=   0.0000E+00     z-rbv=   0.0000E+00
                         hgeng=   0.0000E+00




 time =   6.9917E-02
 mat.#=   10             inten=   0.0000E+00     kinen=   0.0000E+00     eroded_ie=   0.0000E+00     eroded_ke=   0.0000E+00
 x-mom=   0.0000E+00     y-mom=   0.0000E+00     z-mom=   0.0000E+00
 x-rbv=   0.0000E+00     y-rbv=   0.0000E+00     z-rbv=   0.0000E+00
                         hgeng=   0.0000E+00


 mat.#=   20             inten=   0.0000E+00     kinen=   0.0000E+00     eroded_ie=   0.0000E+00     eroded_ke=   0.0000E+00
 x-mom=   0.0000E+00     y-mom=   0.0000E+00     z-mom=   0.0000E+00
 x-rbv=   0.0000E+00     y-rbv=   0.0000E+00     z-rbv=   0.0000E+00
                         hgeng=   0.0000E+00


 mat.#=  100             inten=   1.4969E-01     kinen=   4.6091E-02     eroded_ie=   0.0000E+00     eroded_ke=   0.0000E+00
 x-mom=  -6.6840E-13     y-mom=   1.5243E-09     z-mom=   2.8182E-12
 x-rbv=  -8.6042E-11     y-rbv=   1.9622E-07     z-rbv=   3.6278E-10
                         hgeng=   0.0000E+00


 mat.#=  110             inten=   8.5045E-04     kinen=   7.4364E-02     eroded_ie=   0.0000E+00     eroded_ke=   0.0000E+00
 x-mom=  -2.5141E-09     y-mom=   4.3245E-02     z-mom=   9.2578E-10
 x-rbv=  -1.9994E-07     y-rbv=   3.4392E+00     z-rbv=   7.3625E-08
                         hgeng=   0.0000E+00


 mat.#=  120             inten=   8.5045E-04     kinen=   7.4364E-02     eroded_ie=   0.0000E+00     eroded_ke=   0.0000E+00
 x-mom=   2.5154E-09     y-mom=  -4.3245E-02     z-mom=  -9.3149E-10
 x-rbv=   2.0005E-07     y-rbv=  -3.4392E+00     z-rbv=  -7.4079E-08
                         hgeng=   0.0000E+00


 mat.#=  101             inten=   0.0000E+00     kinen=   0.0000E+00     eroded_ie=   0.0000E+00     eroded_ke=   0.0000E+00
 x-mom=   0.0000E+00     y-mom=   0.0000E+00     z-mom=   0.0000E+00
 x-rbv=   0.0000E+00     y-rbv=   0.0000E+00     z-rbv=   0.0000E+00
                         hgeng=   0.0000E+00


 mat.#=  310             inten=   0.0000E+00     kinen=   0.0000E+00     eroded_ie=   0.0000E+00     eroded_ke=   0.0000E+00
 x-mom=   0.0000E+00     y-mom=   0.0000E+00     z-mom=   0.0000E+00
 x-rbv=   0.0000E+00     y-rbv=   0.0000E+00     z-rbv=   0.0000E+00
                         hgeng=   0.0000E+00




 time =   7.4790E-02
 mat.#=   10             inten=   0.0000E+00     kinen=   0.0000E+00     eroded_ie=   0.0000E+00     eroded_ke=   0.0000E+00
 x-mom=   0.0000E+00     y-mom=   0.0000E+00     z-mom=   0.0000E+00
 x-rbv=   0.0000E+00     y-rbv=   0.0000E+00     z-rbv=   0.0000E+00
                         hgeng=   0.0000E+00


 mat.#=   20             inten=   0.0000E+00     kinen=   0.0000E+00     eroded_ie=   0.0000E+00     eroded_ke=   0.0000E+00
 x-mom=   0.0000E+00     y-mom=   0.0000E+00     z-mom=   0.0000E+00
 x-rbv=   0.0000E+00     y-rbv=   0.0000E+00     z-rbv=   0.0000E+00
                         hgeng=   0.0000E+00


 mat.#=  100             inten=   1.8831E-01     kinen=   6.0276E-02     eroded_ie=   0.0000E+00     eroded_ke=   0.0000E+00
 x-mom=  -6.6343E-13     y-mom=   1.5299E-09     z-mom=   2.6321E-12
 x-rbv=  -8.5401E-11     y-rbv=   1.9694E-07     z-rbv=   3.3882E-10
                         hgeng=   0.0000E+00


 mat.#=  110             inten=   1.0875E-03     kinen=   9.7322E-02     eroded_ie=   0.0000E+00     eroded_ke=   0.0000E+00
 x-mom=  -3.9143E-09     y-mom=   4.9472E-02     z-mom=   1.0723E-09
 x-rbv=  -3.1130E-07     y-rbv=   3.9344E+00     z-rbv=   8.5275E-08
                         hgeng=   0.0000E+00


 mat.#=  120             inten=   1.0875E-03     kinen=   9.7322E-02     eroded_ie=   0.0000E+00     eroded_ke=   0.0000E+00
 x-mom=   3.9157E-09     y-mom=  -4.9472E-02     z-mom=  -1.0776E-09
 x-rbv=   3.1141E-07     y-rbv=  -3.9344E+00     z-rbv=  -8.5701E-08
                         hgeng=   0.0000E+00


 mat.#=  101             inten=   0.0000E+00     kinen=   0.0000E+00     eroded_ie=   0.0000E+00     eroded_ke=   0.0000E+00
 x-mom=   0.0000E+00     y-mom=   0.0000E+00     z-mom=   0.0000E+00
 x-rbv=   0.0000E+00     y-rbv=   0.0000E+00     z-rbv=   0.0000E+00
                         hgeng=   0.0000E+00


 mat.#=  310             inten=   0.0000E+00     kinen=   0.0000E+00     eroded_ie=   0.0000E+00     eroded_ke=   0.0000E+00
 x-mom=   0.0000E+00     y-mom=   0.0000E+00     z-mom=   0.0000E+00
 x-rbv=   0.0000E+00     y-rbv=   0.0000E+00     z-rbv=   0.0000E+00
                         hgeng=   0.0000E+00




 time =   7.9875E-02
 mat.#=   10             inten=   0.0000E+00     kinen=   0.0000E+00     eroded_ie=   0.0000E+00     eroded_ke=   0.0000E+00
 x-mom=   0.0000E+00     y-mom=   0.0000E+00     z-mom=   0.0000E+00
 x-rbv=   0.0000E+00     y-rbv=   0.0000E+00     z-rbv=   0.0000E+00
                         hgeng=   0.0000E+00


 mat.#=   20             inten=   0.0000E+00     kinen=   0.0000E+00     eroded_ie=   0.0000E+00     eroded_ke=   0.0000E+00
 x-mom=   0.0000E+00     y-mom=   0.0000E+00     z-mom=   0.0000E+00
 x-rbv=   0.0000E+00     y-rbv=   0.0000E+00     z-rbv=   0.0000E+00
                         hgeng=   0.0000E+00


 mat.#=  100             inten=   2.4031E-01     kinen=   7.7351E-02     eroded_ie=   0.0000E+00     eroded_ke=   0.0000E+00
 x-mom=   1.1612E-13     y-mom=   1.7741E-09     z-mom=  -1.6544E-13
 x-rbv=   1.4948E-11     y-rbv=   2.2837E-07     z-rbv=  -2.1296E-11
                         hgeng=   0.0000E+00


 mat.#=  110             inten=   1.2225E-03     kinen=   1.2749E-01     eroded_ie=   0.0000E+00     eroded_ke=   0.0000E+00
 x-mom=  -4.6482E-09     y-mom=   5.6623E-02     z-mom=   1.2222E-09
 x-rbv=  -3.6966E-07     y-rbv=   4.5031E+00     z-rbv=   9.7196E-08
                         hgeng=   0.0000E+00


 mat.#=  120             inten=   1.2225E-03     kinen=   1.2749E-01     eroded_ie=   0.0000E+00     eroded_ke=   0.0000E+00
 x-mom=   4.6480E-09     y-mom=  -5.6623E-02     z-mom=  -1.2218E-09
 x-rbv=   3.6964E-07     y-rbv=  -4.5031E+00     z-rbv=  -9.7169E-08
                         hgeng=   0.0000E+00


 mat.#=  101             inten=   0.0000E+00     kinen=   0.0000E+00     eroded_ie=   0.0000E+00     eroded_ke=   0.0000E+00
 x-mom=   0.0000E+00     y-mom=   0.0000E+00     z-mom=   0.0000E+00
 x-rbv=   0.0000E+00     y-rbv=   0.0000E+00     z-rbv=   0.0000E+00
                         hgeng=   0.0000E+00


 mat.#=  310             inten=   0.0000E+00     kinen=   0.0000E+00     eroded_ie=   0.0000E+00     eroded_ke=   0.0000E+00
 x-mom=   0.0000E+00     y-mom=   0.0000E+00     z-mom=   0.0000E+00
 x-rbv=   0.0000E+00     y-rbv=   0.0000E+00     z-rbv=   0.0000E+00
                         hgeng=   0.0000E+00




 time =   8.4960E-02
 mat.#=   10             inten=   0.0000E+00     kinen=   0.0000E+00     eroded_ie=   0.0000E+00     eroded_ke=   0.0000E+00
 x-mom=   0.0000E+00     y-mom=   0.0000E+00     z-mom=   0.0000E+00
 x-rbv=   0.0000E+00     y-rbv=   0.0000E+00     z-rbv=   0.0000E+00
                         hgeng=   0.0000E+00


 mat.#=   20             inten=   0.0000E+00     kinen=   0.0000E+00     eroded_ie=   0.0000E+00     eroded_ke=   0.0000E+00
 x-mom=   0.0000E+00     y-mom=   0.0000E+00     z-mom=   0.0000E+00
 x-rbv=   0.0000E+00     y-rbv=   0.0000E+00     z-rbv=   0.0000E+00
                         hgeng=   0.0000E+00


 mat.#=  100             inten=   3.0737E-01     kinen=   9.9028E-02     eroded_ie=   0.0000E+00     eroded_ke=   0.0000E+00
 x-mom=  -2.2007E-13     y-mom=   2.2037E-09     z-mom=  -6.9882E-13
 x-rbv=  -2.8330E-11     y-rbv=   2.8367E-07     z-rbv=  -8.9957E-11
                         hgeng=   0.0000E+00


 mat.#=  110             inten=   1.2666E-03     kinen=   1.6285E-01     eroded_ie=   0.0000E+00     eroded_ke=   0.0000E+00
 x-mom=  -4.8565E-09     y-mom=   6.3996E-02     z-mom=   1.3630E-09
 x-rbv=  -3.8623E-07     y-rbv=   5.0895E+00     z-rbv=   1.0840E-07
                         hgeng=   0.0000E+00


 mat.#=  120             inten=   1.2666E-03     kinen=   1.6285E-01     eroded_ie=   0.0000E+00     eroded_ke=   0.0000E+00
 x-mom=   4.8570E-09     y-mom=  -6.3996E-02     z-mom=  -1.3616E-09
 x-rbv=   3.8627E-07     y-rbv=  -5.0895E+00     z-rbv=  -1.0828E-07
                         hgeng=   0.0000E+00


 mat.#=  101             inten=   0.0000E+00     kinen=   0.0000E+00     eroded_ie=   0.0000E+00     eroded_ke=   0.0000E+00
 x-mom=   0.0000E+00     y-mom=   0.0000E+00     z-mom=   0.0000E+00
 x-rbv=   0.0000E+00     y-rbv=   0.0000E+00     z-rbv=   0.0000E+00
                         hgeng=   0.0000E+00


 mat.#=  310             inten=   0.0000E+00     kinen=   0.0000E+00     eroded_ie=   0.0000E+00     eroded_ke=   0.0000E+00
 x-mom=   0.0000E+00     y-mom=   0.0000E+00     z-mom=   0.0000E+00
 x-rbv=   0.0000E+00     y-rbv=   0.0000E+00     z-rbv=   0.0000E+00
                         hgeng=   0.0000E+00




 time =   8.9833E-02
 mat.#=   10             inten=   0.0000E+00     kinen=   0.0000E+00     eroded_ie=   0.0000E+00     eroded_ke=   0.0000E+00
 x-mom=   0.0000E+00     y-mom=   0.0000E+00     z-mom=   0.0000E+00
 x-rbv=   0.0000E+00     y-rbv=   0.0000E+00     z-rbv=   0.0000E+00
                         hgeng=   0.0000E+00


 mat.#=   20             inten=   0.0000E+00     kinen=   0.0000E+00     eroded_ie=   0.0000E+00     eroded_ke=   0.0000E+00
 x-mom=   0.0000E+00     y-mom=   0.0000E+00     z-mom=   0.0000E+00
 x-rbv=   0.0000E+00     y-rbv=   0.0000E+00     z-rbv=   0.0000E+00
                         hgeng=   0.0000E+00


 mat.#=  100             inten=   3.8944E-01     kinen=   1.2379E-01     eroded_ie=   0.0000E+00     eroded_ke=   0.0000E+00
 x-mom=  -1.1424E-12     y-mom=   2.2748E-09     z-mom=   4.8437E-12
 x-rbv=  -1.4706E-10     y-rbv=   2.9283E-07     z-rbv=   6.2351E-10
                         hgeng=   0.0000E+00


 mat.#=  110             inten=   1.5233E-03     kinen=   2.0308E-01     eroded_ie=   0.0000E+00     eroded_ke=   0.0000E+00
 x-mom=  -4.6772E-09     y-mom=   7.1465E-02     z-mom=   1.4868E-09
 x-rbv=  -3.7197E-07     y-rbv=   5.6835E+00     z-rbv=   1.1824E-07
                         hgeng=   0.0000E+00


 mat.#=  120             inten=   1.5233E-03     kinen=   2.0308E-01     eroded_ie=   0.0000E+00     eroded_ke=   0.0000E+00
 x-mom=   4.6796E-09     y-mom=  -7.1465E-02     z-mom=  -1.4968E-09
 x-rbv=   3.7216E-07     y-rbv=  -5.6835E+00     z-rbv=  -1.1903E-07
                         hgeng=   0.0000E+00


 mat.#=  101             inten=   0.0000E+00     kinen=   0.0000E+00     eroded_ie=   0.0000E+00     eroded_ke=   0.0000E+00
 x-mom=   0.0000E+00     y-mom=   0.0000E+00     z-mom=   0.0000E+00
 x-rbv=   0.0000E+00     y-rbv=   0.0000E+00     z-rbv=   0.0000E+00
                         hgeng=   0.0000E+00


 mat.#=  310             inten=   0.0000E+00     kinen=   0.0000E+00     eroded_ie=   0.0000E+00     eroded_ke=   0.0000E+00
 x-mom=   0.0000E+00     y-mom=   0.0000E+00     z-mom=   0.0000E+00
 x-rbv=   0.0000E+00     y-rbv=   0.0000E+00     z-rbv=   0.0000E+00
                         hgeng=   0.0000E+00




 time =   9.4918E-02
 mat.#=   10             inten=   0.0000E+00     kinen=   0.0000E+00     eroded_ie=   0.0000E+00     eroded_ke=   0.0000E+00
 x-mom=   0.0000E+00     y-mom=   0.0000E+00     z-mom=   0.0000E+00
 x-rbv=   0.0000E+00     y-rbv=   0.0000E+00     z-rbv=   0.0000E+00
                         hgeng=   0.0000E+00


 mat.#=   20             inten=   0.0000E+00     kinen=   0.0000E+00     eroded_ie=   0.0000E+00     eroded_ke=   0.0000E+00
 x-mom=   0.0000E+00     y-mom=   0.0000E+00     z-mom=   0.0000E+00
 x-rbv=   0.0000E+00     y-rbv=   0.0000E+00     z-rbv=   0.0000E+00
                         hgeng=   0.0000E+00


 mat.#=  100             inten=   4.9652E-01     kinen=   1.5247E-01     eroded_ie=   0.0000E+00     eroded_ke=   0.0000E+00
 x-mom=   1.3591E-13     y-mom=   2.4500E-09     z-mom=   1.8993E-13
 x-rbv=   1.7496E-11     y-rbv=   3.1538E-07     z-rbv=   2.4449E-11
                         hgeng=   0.0000E+00


 mat.#=  110             inten=   1.7489E-03     kinen=   2.5430E-01     eroded_ie=   0.0000E+00     eroded_ke=   0.0000E+00
 x-mom=  -5.5029E-09     y-mom=   7.9971E-02     z-mom=   1.6343E-09
 x-rbv=  -4.3763E-07     y-rbv=   6.3599E+00     z-rbv=   1.2998E-07
                         hgeng=   0.0000E+00


 mat.#=  120             inten=   1.7489E-03     kinen=   2.5430E-01     eroded_ie=   0.0000E+00     eroded_ke=   0.0000E+00
 x-mom=   5.5026E-09     y-mom=  -7.9971E-02     z-mom=  -1.6347E-09
 x-rbv=   4.3761E-07     y-rbv=  -6.3599E+00     z-rbv=  -1.3001E-07
                         hgeng=   0.0000E+00


 mat.#=  101             inten=   0.0000E+00     kinen=   0.0000E+00     eroded_ie=   0.0000E+00     eroded_ke=   0.0000E+00
 x-mom=   0.0000E+00     y-mom=   0.0000E+00     z-mom=   0.0000E+00
 x-rbv=   0.0000E+00     y-rbv=   0.0000E+00     z-rbv=   0.0000E+00
                         hgeng=   0.0000E+00


 mat.#=  310             inten=   0.0000E+00     kinen=   0.0000E+00     eroded_ie=   0.0000E+00     eroded_ke=   0.0000E+00
 x-mom=   0.0000E+00     y-mom=   0.0000E+00     z-mom=   0.0000E+00
 x-rbv=   0.0000E+00     y-rbv=   0.0000E+00     z-rbv=   0.0000E+00
                         hgeng=   0.0000E+00




 time =   9.9791E-02
 mat.#=   10             inten=   0.0000E+00     kinen=   0.0000E+00     eroded_ie=   0.0000E+00     eroded_ke=   0.0000E+00
 x-mom=   0.0000E+00     y-mom=   0.0000E+00     z-mom=   0.0000E+00
 x-rbv=   0.0000E+00     y-rbv=   0.0000E+00     z-rbv=   0.0000E+00
                         hgeng=   0.0000E+00


 mat.#=   20             inten=   0.0000E+00     kinen=   0.0000E+00     eroded_ie=   0.0000E+00     eroded_ke=   0.0000E+00
 x-mom=   0.0000E+00     y-mom=   0.0000E+00     z-mom=   0.0000E+00
 x-rbv=   0.0000E+00     y-rbv=   0.0000E+00     z-rbv=   0.0000E+00
                         hgeng=   0.0000E+00


 mat.#=  100             inten=   6.2314E-01     kinen=   1.8529E-01     eroded_ie=   0.0000E+00     eroded_ke=   0.0000E+00
 x-mom=  -2.1311E-13     y-mom=   2.9393E-09     z-mom=   6.7785E-13
 x-rbv=  -2.7433E-11     y-rbv=   3.7836E-07     z-rbv=   8.7258E-11
                         hgeng=   0.0000E+00


 mat.#=  110             inten=   1.7795E-03     kinen=   3.1079E-01     eroded_ie=   0.0000E+00     eroded_ke=   0.0000E+00
 x-mom=  -6.8438E-09     y-mom=   8.8407E-02     z-mom=   1.7877E-09
 x-rbv=  -5.4427E-07     y-rbv=   7.0308E+00     z-rbv=   1.4217E-07
                         hgeng=   0.0000E+00


 mat.#=  120             inten=   1.7795E-03     kinen=   3.1079E-01     eroded_ie=   0.0000E+00     eroded_ke=   0.0000E+00
 x-mom=   6.8442E-09     y-mom=  -8.8407E-02     z-mom=  -1.7891E-09
 x-rbv=   5.4431E-07     y-rbv=  -7.0308E+00     z-rbv=  -1.4228E-07
                         hgeng=   0.0000E+00


 mat.#=  101             inten=   0.0000E+00     kinen=   0.0000E+00     eroded_ie=   0.0000E+00     eroded_ke=   0.0000E+00
 x-mom=   0.0000E+00     y-mom=   0.0000E+00     z-mom=   0.0000E+00
 x-rbv=   0.0000E+00     y-rbv=   0.0000E+00     z-rbv=   0.0000E+00
                         hgeng=   0.0000E+00


 mat.#=  310             inten=   0.0000E+00     kinen=   0.0000E+00     eroded_ie=   0.0000E+00     eroded_ke=   0.0000E+00
 x-mom=   0.0000E+00     y-mom=   0.0000E+00     z-mom=   0.0000E+00
 x-rbv=   0.0000E+00     y-rbv=   0.0000E+00     z-rbv=   0.0000E+00
                         hgeng=   0.0000E+00




 time =   1.0488E-01
 mat.#=   10             inten=   0.0000E+00     kinen=   0.0000E+00     eroded_ie=   0.0000E+00     eroded_ke=   0.0000E+00
 x-mom=   0.0000E+00     y-mom=   0.0000E+00     z-mom=   0.0000E+00
 x-rbv=   0.0000E+00     y-rbv=   0.0000E+00     z-rbv=   0.0000E+00
                         hgeng=   0.0000E+00


 mat.#=   20             inten=   0.0000E+00     kinen=   0.0000E+00     eroded_ie=   0.0000E+00     eroded_ke=   0.0000E+00
 x-mom=   0.0000E+00     y-mom=   0.0000E+00     z-mom=   0.0000E+00
 x-rbv=   0.0000E+00     y-rbv=   0.0000E+00     z-rbv=   0.0000E+00
                         hgeng=   0.0000E+00


 mat.#=  100             inten=   7.8601E-01     kinen=   2.2579E-01     eroded_ie=   0.0000E+00     eroded_ke=   0.0000E+00
 x-mom=  -9.0135E-13     y-mom=   3.1211E-09     z-mom=   3.4303E-12
 x-rbv=  -1.1603E-10     y-rbv=   4.0177E-07     z-rbv=   4.4157E-10
                         hgeng=   0.0000E+00


 mat.#=  110             inten=   2.0290E-03     kinen=   3.7805E-01     eroded_ie=   0.0000E+00     eroded_ke=   0.0000E+00
 x-mom=  -8.2024E-09     y-mom=   9.7506E-02     z-mom=   1.9742E-09
 x-rbv=  -6.5232E-07     y-rbv=   7.7544E+00     z-rbv=   1.5700E-07
                         hgeng=   0.0000E+00


 mat.#=  120             inten=   2.0290E-03     kinen=   3.7805E-01     eroded_ie=   0.0000E+00     eroded_ke=   0.0000E+00
 x-mom=   8.2043E-09     y-mom=  -9.7506E-02     z-mom=  -1.9813E-09
 x-rbv=   6.5247E-07     y-rbv=  -7.7544E+00     z-rbv=  -1.5757E-07
                         hgeng=   0.0000E+00


 mat.#=  101             inten=   0.0000E+00     kinen=   0.0000E+00     eroded_ie=   0.0000E+00     eroded_ke=   0.0000E+00
 x-mom=   0.0000E+00     y-mom=   0.0000E+00     z-mom=   0.0000E+00
 x-rbv=   0.0000E+00     y-rbv=   0.0000E+00     z-rbv=   0.0000E+00
                         hgeng=   0.0000E+00


 mat.#=  310             inten=   0.0000E+00     kinen=   0.0000E+00     eroded_ie=   0.0000E+00     eroded_ke=   0.0000E+00
 x-mom=   0.0000E+00     y-mom=   0.0000E+00     z-mom=   0.0000E+00
 x-rbv=   0.0000E+00     y-rbv=   0.0000E+00     z-rbv=   0.0000E+00
                         hgeng=   0.0000E+00




 time =   1.0996E-01
 mat.#=   10             inten=   0.0000E+00     kinen=   0.0000E+00     eroded_ie=   0.0000E+00     eroded_ke=   0.0000E+00
 x-mom=   0.0000E+00     y-mom=   0.0000E+00     z-mom=   0.0000E+00
 x-rbv=   0.0000E+00     y-rbv=   0.0000E+00     z-rbv=   0.0000E+00
                         hgeng=   0.0000E+00


 mat.#=   20             inten=   0.0000E+00     kinen=   0.0000E+00     eroded_ie=   0.0000E+00     eroded_ke=   0.0000E+00
 x-mom=   0.0000E+00     y-mom=   0.0000E+00     z-mom=   0.0000E+00
 x-rbv=   0.0000E+00     y-rbv=   0.0000E+00     z-rbv=   0.0000E+00
                         hgeng=   0.0000E+00


 mat.#=  100             inten=   9.8506E-01     kinen=   2.6996E-01     eroded_ie=   0.0000E+00     eroded_ke=   0.0000E+00
 x-mom=  -2.4172E-13     y-mom=   3.2322E-09     z-mom=   7.6322E-13
 x-rbv=  -3.1116E-11     y-rbv=   4.1607E-07     z-rbv=   9.8247E-11
                         hgeng=   0.0000E+00


 mat.#=  110             inten=   2.3526E-03     kinen=   4.5809E-01     eroded_ie=   0.0000E+00     eroded_ke=   0.0000E+00
 x-mom=  -8.5673E-09     y-mom=   1.0733E-01     z-mom=   2.1892E-09
 x-rbv=  -6.8134E-07     y-rbv=   8.5359E+00     z-rbv=   1.7410E-07
                         hgeng=   0.0000E+00


 mat.#=  120             inten=   2.3526E-03     kinen=   4.5809E-01     eroded_ie=   0.0000E+00     eroded_ke=   0.0000E+00
 x-mom=   8.5678E-09     y-mom=  -1.0733E-01     z-mom=  -2.1908E-09
 x-rbv=   6.8138E-07     y-rbv=  -8.5359E+00     z-rbv=  -1.7423E-07
                         hgeng=   0.0000E+00


 mat.#=  101             inten=   0.0000E+00     kinen=   0.0000E+00     eroded_ie=   0.0000E+00     eroded_ke=   0.0000E+00
 x-mom=   0.0000E+00     y-mom=   0.0000E+00     z-mom=   0.0000E+00
 x-rbv=   0.0000E+00     y-rbv=   0.0000E+00     z-rbv=   0.0000E+00
                         hgeng=   0.0000E+00


 mat.#=  310             inten=   0.0000E+00     kinen=   0.0000E+00     eroded_ie=   0.0000E+00     eroded_ke=   0.0000E+00
 x-mom=   0.0000E+00     y-mom=   0.0000E+00     z-mom=   0.0000E+00
 x-rbv=   0.0000E+00     y-rbv=   0.0000E+00     z-rbv=   0.0000E+00
                         hgeng=   0.0000E+00




 time =   1.1483E-01
 mat.#=   10             inten=   0.0000E+00     kinen=   0.0000E+00     eroded_ie=   0.0000E+00     eroded_ke=   0.0000E+00
 x-mom=   0.0000E+00     y-mom=   0.0000E+00     z-mom=   0.0000E+00
 x-rbv=   0.0000E+00     y-rbv=   0.0000E+00     z-rbv=   0.0000E+00
                         hgeng=   0.0000E+00


 mat.#=   20             inten=   0.0000E+00     kinen=   0.0000E+00     eroded_ie=   0.0000E+00     eroded_ke=   0.0000E+00
 x-mom=   0.0000E+00     y-mom=   0.0000E+00     z-mom=   0.0000E+00
 x-rbv=   0.0000E+00     y-rbv=   0.0000E+00     z-rbv=   0.0000E+00
                         hgeng=   0.0000E+00


 mat.#=  100             inten=   1.2143E+00     kinen=   3.1810E-01     eroded_ie=   0.0000E+00     eroded_ke=   0.0000E+00
 x-mom=   3.8629E-14     y-mom=   3.7521E-09     z-mom=   3.2776E-13
 x-rbv=   4.9726E-12     y-rbv=   4.8299E-07     z-rbv=   4.2191E-11
                         hgeng=   0.0000E+00


 mat.#=  110             inten=   2.4036E-03     kinen=   5.4569E-01     eroded_ie=   0.0000E+00     eroded_ke=   0.0000E+00
 x-mom=  -8.9261E-09     y-mom=   1.1715E-01     z-mom=   2.3914E-09
 x-rbv=  -7.0987E-07     y-rbv=   9.3164E+00     z-rbv=   1.9018E-07
                         hgeng=   0.0000E+00


 mat.#=  120             inten=   2.4036E-03     kinen=   5.4569E-01     eroded_ie=   0.0000E+00     eroded_ke=   0.0000E+00
 x-mom=   8.9260E-09     y-mom=  -1.1715E-01     z-mom=  -2.3921E-09
 x-rbv=   7.0987E-07     y-rbv=  -9.3164E+00     z-rbv=  -1.9024E-07
                         hgeng=   0.0000E+00


 mat.#=  101             inten=   0.0000E+00     kinen=   0.0000E+00     eroded_ie=   0.0000E+00     eroded_ke=   0.0000E+00
 x-mom=   0.0000E+00     y-mom=   0.0000E+00     z-mom=   0.0000E+00
 x-rbv=   0.0000E+00     y-rbv=   0.0000E+00     z-rbv=   0.0000E+00
                         hgeng=   0.0000E+00


 mat.#=  310             inten=   0.0000E+00     kinen=   0.0000E+00     eroded_ie=   0.0000E+00     eroded_ke=   0.0000E+00
 x-mom=   0.0000E+00     y-mom=   0.0000E+00     z-mom=   0.0000E+00
 x-rbv=   0.0000E+00     y-rbv=   0.0000E+00     z-rbv=   0.0000E+00
                         hgeng=   0.0000E+00




 time =   1.1992E-01
 mat.#=   10             inten=   0.0000E+00     kinen=   0.0000E+00     eroded_ie=   0.0000E+00     eroded_ke=   0.0000E+00
 x-mom=   0.0000E+00     y-mom=   0.0000E+00     z-mom=   0.0000E+00
 x-rbv=   0.0000E+00     y-rbv=   0.0000E+00     z-rbv=   0.0000E+00
                         hgeng=   0.0000E+00


 mat.#=   20             inten=   0.0000E+00     kinen=   0.0000E+00     eroded_ie=   0.0000E+00     eroded_ke=   0.0000E+00
 x-mom=   0.0000E+00     y-mom=   0.0000E+00     z-mom=   0.0000E+00
 x-rbv=   0.0000E+00     y-rbv=   0.0000E+00     z-rbv=   0.0000E+00
                         hgeng=   0.0000E+00


 mat.#=  100             inten=   1.5016E+00     kinen=   3.7674E-01     eroded_ie=   0.0000E+00     eroded_ke=   0.0000E+00
 x-mom=  -8.9210E-13     y-mom=   4.0478E-09     z-mom=   3.3231E-12
 x-rbv=  -1.1484E-10     y-rbv=   5.2106E-07     z-rbv=   4.2778E-10
                         hgeng=   0.0000E+00


 mat.#=  110             inten=   2.6117E-03     kinen=   6.4740E-01     eroded_ie=   0.0000E+00     eroded_ke=   0.0000E+00
 x-mom=  -9.6513E-09     y-mom=   1.2760E-01     z-mom=   2.5695E-09
 x-rbv=  -7.6755E-07     y-rbv=   1.0148E+01     z-rbv=   2.0435E-07
                         hgeng=   0.0000E+00


 mat.#=  120             inten=   2.6117E-03     kinen=   6.4740E-01     eroded_ie=   0.0000E+00     eroded_ke=   0.0000E+00
 x-mom=   9.6532E-09     y-mom=  -1.2760E-01     z-mom=  -2.5766E-09
 x-rbv=   7.6770E-07     y-rbv=  -1.0148E+01     z-rbv=  -2.0491E-07
                         hgeng=   0.0000E+00


 mat.#=  101             inten=   0.0000E+00     kinen=   0.0000E+00     eroded_ie=   0.0000E+00     eroded_ke=   0.0000E+00
 x-mom=   0.0000E+00     y-mom=   0.0000E+00     z-mom=   0.0000E+00
 x-rbv=   0.0000E+00     y-rbv=   0.0000E+00     z-rbv=   0.0000E+00
                         hgeng=   0.0000E+00


 mat.#=  310             inten=   0.0000E+00     kinen=   0.0000E+00     eroded_ie=   0.0000E+00     eroded_ke=   0.0000E+00
 x-mom=   0.0000E+00     y-mom=   0.0000E+00     z-mom=   0.0000E+00
 x-rbv=   0.0000E+00     y-rbv=   0.0000E+00     z-rbv=   0.0000E+00
                         hgeng=   0.0000E+00




 time =   1.2479E-01
 mat.#=   10             inten=   0.0000E+00     kinen=   0.0000E+00     eroded_ie=   0.0000E+00     eroded_ke=   0.0000E+00
 x-mom=   0.0000E+00     y-mom=   0.0000E+00     z-mom=   0.0000E+00
 x-rbv=   0.0000E+00     y-rbv=   0.0000E+00     z-rbv=   0.0000E+00
                         hgeng=   0.0000E+00


 mat.#=   20             inten=   0.0000E+00     kinen=   0.0000E+00     eroded_ie=   0.0000E+00     eroded_ke=   0.0000E+00
 x-mom=   0.0000E+00     y-mom=   0.0000E+00     z-mom=   0.0000E+00
 x-rbv=   0.0000E+00     y-rbv=   0.0000E+00     z-rbv=   0.0000E+00
                         hgeng=   0.0000E+00


 mat.#=  100             inten=   1.8300E+00     kinen=   4.3746E-01     eroded_ie=   0.0000E+00     eroded_ke=   0.0000E+00
 x-mom=  -7.5923E-13     y-mom=   4.0811E-09     z-mom=   3.8599E-12
 x-rbv=  -9.7733E-11     y-rbv=   5.2535E-07     z-rbv=   4.9687E-10
                         hgeng=   0.0000E+00


 mat.#=  110             inten=   3.0106E-03     kinen=   7.5990E-01     eroded_ie=   0.0000E+00     eroded_ke=   0.0000E+00
 x-mom=  -1.1080E-08     y-mom=   1.3824E-01     z-mom=   2.7147E-09
 x-rbv=  -8.8120E-07     y-rbv=   1.0994E+01     z-rbv=   2.1589E-07
                         hgeng=   0.0000E+00


 mat.#=  120             inten=   3.0106E-03     kinen=   7.5990E-01     eroded_ie=   0.0000E+00     eroded_ke=   0.0000E+00
 x-mom=   1.1082E-08     y-mom=  -1.3824E-01     z-mom=  -2.7230E-09
 x-rbv=   8.8133E-07     y-rbv=  -1.0994E+01     z-rbv=  -2.1655E-07
                         hgeng=   0.0000E+00


 mat.#=  101             inten=   0.0000E+00     kinen=   0.0000E+00     eroded_ie=   0.0000E+00     eroded_ke=   0.0000E+00
 x-mom=   0.0000E+00     y-mom=   0.0000E+00     z-mom=   0.0000E+00
 x-rbv=   0.0000E+00     y-rbv=   0.0000E+00     z-rbv=   0.0000E+00
                         hgeng=   0.0000E+00


 mat.#=  310             inten=   0.0000E+00     kinen=   0.0000E+00     eroded_ie=   0.0000E+00     eroded_ke=   0.0000E+00
 x-mom=   0.0000E+00     y-mom=   0.0000E+00     z-mom=   0.0000E+00
 x-rbv=   0.0000E+00     y-rbv=   0.0000E+00     z-rbv=   0.0000E+00
                         hgeng=   0.0000E+00




 time =   1.2988E-01
 mat.#=   10             inten=   0.0000E+00     kinen=   0.0000E+00     eroded_ie=   0.0000E+00     eroded_ke=   0.0000E+00
 x-mom=   0.0000E+00     y-mom=   0.0000E+00     z-mom=   0.0000E+00
 x-rbv=   0.0000E+00     y-rbv=   0.0000E+00     z-rbv=   0.0000E+00
                         hgeng=   0.0000E+00


 mat.#=   20             inten=   0.0000E+00     kinen=   0.0000E+00     eroded_ie=   0.0000E+00     eroded_ke=   0.0000E+00
 x-mom=   0.0000E+00     y-mom=   0.0000E+00     z-mom=   0.0000E+00
 x-rbv=   0.0000E+00     y-rbv=   0.0000E+00     z-rbv=   0.0000E+00
                         hgeng=   0.0000E+00


 mat.#=  100             inten=   2.2344E+00     kinen=   5.0656E-01     eroded_ie=   0.0000E+00     eroded_ke=   0.0000E+00
 x-mom=   4.1100E-13     y-mom=   4.5996E-09     z-mom=  -1.0675E-12
 x-rbv=   5.2907E-11     y-rbv=   5.9210E-07     z-rbv=  -1.3741E-10
                         hgeng=   0.0000E+00


 mat.#=  110             inten=   3.1329E-03     kinen=   8.9341E-01     eroded_ie=   0.0000E+00     eroded_ke=   0.0000E+00
 x-mom=  -1.2523E-08     y-mom=   1.4989E-01     z-mom=   2.8618E-09
 x-rbv=  -9.9590E-07     y-rbv=   1.1921E+01     z-rbv=   2.2760E-07
                         hgeng=   0.0000E+00


 mat.#=  120             inten=   3.1329E-03     kinen=   8.9341E-01     eroded_ie=   0.0000E+00     eroded_ke=   0.0000E+00
 x-mom=   1.2522E-08     y-mom=  -1.4989E-01     z-mom=  -2.8595E-09
 x-rbv=   9.9583E-07     y-rbv=  -1.1921E+01     z-rbv=  -2.2741E-07
                         hgeng=   0.0000E+00


 mat.#=  101             inten=   0.0000E+00     kinen=   0.0000E+00     eroded_ie=   0.0000E+00     eroded_ke=   0.0000E+00
 x-mom=   0.0000E+00     y-mom=   0.0000E+00     z-mom=   0.0000E+00
 x-rbv=   0.0000E+00     y-rbv=   0.0000E+00     z-rbv=   0.0000E+00
                         hgeng=   0.0000E+00


 mat.#=  310             inten=   0.0000E+00     kinen=   0.0000E+00     eroded_ie=   0.0000E+00     eroded_ke=   0.0000E+00
 x-mom=   0.0000E+00     y-mom=   0.0000E+00     z-mom=   0.0000E+00
 x-rbv=   0.0000E+00     y-rbv=   0.0000E+00     z-rbv=   0.0000E+00
                         hgeng=   0.0000E+00




 time =   1.3496E-01
 mat.#=   10             inten=   0.0000E+00     kinen=   0.0000E+00     eroded_ie=   0.0000E+00     eroded_ke=   0.0000E+00
 x-mom=   0.0000E+00     y-mom=   0.0000E+00     z-mom=   0.0000E+00
 x-rbv=   0.0000E+00     y-rbv=   0.0000E+00     z-rbv=   0.0000E+00
                         hgeng=   0.0000E+00


 mat.#=   20             inten=   0.0000E+00     kinen=   0.0000E+00     eroded_ie=   0.0000E+00     eroded_ke=   0.0000E+00
 x-mom=   0.0000E+00     y-mom=   0.0000E+00     z-mom=   0.0000E+00
 x-rbv=   0.0000E+00     y-rbv=   0.0000E+00     z-rbv=   0.0000E+00
                         hgeng=   0.0000E+00


 mat.#=  100             inten=   2.7125E+00     kinen=   5.8588E-01     eroded_ie=   0.0000E+00     eroded_ke=   0.0000E+00
 x-mom=  -9.9725E-13     y-mom=   5.0382E-09     z-mom=   4.1388E-12
 x-rbv=  -1.2837E-10     y-rbv=   6.4855E-07     z-rbv=   5.3278E-10
                         hgeng=   0.0000E+00


 mat.#=  110             inten=   3.2813E-03     kinen=   1.0401E+00     eroded_ie=   0.0000E+00     eroded_ke=   0.0000E+00
 x-mom=  -1.3554E-08     y-mom=   1.6173E-01     z-mom=   3.0151E-09
 x-rbv=  -1.0779E-06     y-rbv=   1.2862E+01     z-rbv=   2.3979E-07
                         hgeng=   0.0000E+00


 mat.#=  120             inten=   3.2813E-03     kinen=   1.0401E+00     eroded_ie=   0.0000E+00     eroded_ke=   0.0000E+00
 x-mom=   1.3556E-08     y-mom=  -1.6173E-01     z-mom=  -3.0242E-09
 x-rbv=   1.0781E-06     y-rbv=  -1.2862E+01     z-rbv=  -2.4051E-07
                         hgeng=   0.0000E+00


 mat.#=  101             inten=   0.0000E+00     kinen=   0.0000E+00     eroded_ie=   0.0000E+00     eroded_ke=   0.0000E+00
 x-mom=   0.0000E+00     y-mom=   0.0000E+00     z-mom=   0.0000E+00
 x-rbv=   0.0000E+00     y-rbv=   0.0000E+00     z-rbv=   0.0000E+00
                         hgeng=   0.0000E+00


 mat.#=  310             inten=   0.0000E+00     kinen=   0.0000E+00     eroded_ie=   0.0000E+00     eroded_ke=   0.0000E+00
 x-mom=   0.0000E+00     y-mom=   0.0000E+00     z-mom=   0.0000E+00
 x-rbv=   0.0000E+00     y-rbv=   0.0000E+00     z-rbv=   0.0000E+00
                         hgeng=   0.0000E+00




 time =   1.3983E-01
 mat.#=   10             inten=   0.0000E+00     kinen=   0.0000E+00     eroded_ie=   0.0000E+00     eroded_ke=   0.0000E+00
 x-mom=   0.0000E+00     y-mom=   0.0000E+00     z-mom=   0.0000E+00
 x-rbv=   0.0000E+00     y-rbv=   0.0000E+00     z-rbv=   0.0000E+00
                         hgeng=   0.0000E+00


 mat.#=   20             inten=   0.0000E+00     kinen=   0.0000E+00     eroded_ie=   0.0000E+00     eroded_ke=   0.0000E+00
 x-mom=   0.0000E+00     y-mom=   0.0000E+00     z-mom=   0.0000E+00
 x-rbv=   0.0000E+00     y-rbv=   0.0000E+00     z-rbv=   0.0000E+00
                         hgeng=   0.0000E+00


 mat.#=  100             inten=   3.2506E+00     kinen=   6.6787E-01     eroded_ie=   0.0000E+00     eroded_ke=   0.0000E+00
 x-mom=  -7.5211E-13     y-mom=   5.0084E-09     z-mom=   3.5527E-12
 x-rbv=  -9.6817E-11     y-rbv=   6.4472E-07     z-rbv=   4.5733E-10
                         hgeng=   0.0000E+00


 mat.#=  110             inten=   3.7348E-03     kinen=   1.1985E+00     eroded_ie=   0.0000E+00     eroded_ke=   0.0000E+00
 x-mom=  -1.3818E-08     y-mom=   1.7361E-01     z-mom=   3.1916E-09
 x-rbv=  -1.0989E-06     y-rbv=   1.3807E+01     z-rbv=   2.5382E-07
                         hgeng=   0.0000E+00


 mat.#=  120             inten=   3.7348E-03     kinen=   1.1985E+00     eroded_ie=   0.0000E+00     eroded_ke=   0.0000E+00
 x-mom=   1.3820E-08     y-mom=  -1.7361E-01     z-mom=  -3.1996E-09
 x-rbv=   1.0991E-06     y-rbv=  -1.3807E+01     z-rbv=  -2.5445E-07
                         hgeng=   0.0000E+00


 mat.#=  101             inten=   0.0000E+00     kinen=   0.0000E+00     eroded_ie=   0.0000E+00     eroded_ke=   0.0000E+00
 x-mom=   0.0000E+00     y-mom=   0.0000E+00     z-mom=   0.0000E+00
 x-rbv=   0.0000E+00     y-rbv=   0.0000E+00     z-rbv=   0.0000E+00
                         hgeng=   0.0000E+00


 mat.#=  310             inten=   0.0000E+00     kinen=   0.0000E+00     eroded_ie=   0.0000E+00     eroded_ke=   0.0000E+00
 x-mom=   0.0000E+00     y-mom=   0.0000E+00     z-mom=   0.0000E+00
 x-rbv=   0.0000E+00     y-rbv=   0.0000E+00     z-rbv=   0.0000E+00
                         hgeng=   0.0000E+00




 time =   1.4492E-01
 mat.#=   10             inten=   0.0000E+00     kinen=   0.0000E+00     eroded_ie=   0.0000E+00     eroded_ke=   0.0000E+00
 x-mom=   0.0000E+00     y-mom=   0.0000E+00     z-mom=   0.0000E+00
 x-rbv=   0.0000E+00     y-rbv=   0.0000E+00     z-rbv=   0.0000E+00
                         hgeng=   0.0000E+00


 mat.#=   20             inten=   0.0000E+00     kinen=   0.0000E+00     eroded_ie=   0.0000E+00     eroded_ke=   0.0000E+00
 x-mom=   0.0000E+00     y-mom=   0.0000E+00     z-mom=   0.0000E+00
 x-rbv=   0.0000E+00     y-rbv=   0.0000E+00     z-rbv=   0.0000E+00
                         hgeng=   0.0000E+00


 mat.#=  100             inten=   3.9046E+00     kinen=   7.5830E-01     eroded_ie=   0.0000E+00     eroded_ke=   0.0000E+00
 x-mom=   4.8256E-14     y-mom=   5.4265E-09     z-mom=  -2.8696E-13
 x-rbv=   6.2119E-12     y-rbv=   6.9853E-07     z-rbv=  -3.6940E-11
                         hgeng=   0.0000E+00


 mat.#=  110             inten=   3.9623E-03     kinen=   1.3853E+00     eroded_ie=   0.0000E+00     eroded_ke=   0.0000E+00
 x-mom=  -1.4669E-08     y-mom=   1.8665E-01     z-mom=   3.3890E-09
 x-rbv=  -1.1666E-06     y-rbv=   1.4844E+01     z-rbv=   2.6952E-07
                         hgeng=   0.0000E+00


 mat.#=  120             inten=   3.9623E-03     kinen=   1.3853E+00     eroded_ie=   0.0000E+00     eroded_ke=   0.0000E+00
 x-mom=   1.4668E-08     y-mom=  -1.8665E-01     z-mom=  -3.3883E-09
 x-rbv=   1.1666E-06     y-rbv=  -1.4844E+01     z-rbv=  -2.6947E-07
                         hgeng=   0.0000E+00


 mat.#=  101             inten=   0.0000E+00     kinen=   0.0000E+00     eroded_ie=   0.0000E+00     eroded_ke=   0.0000E+00
 x-mom=   0.0000E+00     y-mom=   0.0000E+00     z-mom=   0.0000E+00
 x-rbv=   0.0000E+00     y-rbv=   0.0000E+00     z-rbv=   0.0000E+00
                         hgeng=   0.0000E+00


 mat.#=  310             inten=   0.0000E+00     kinen=   0.0000E+00     eroded_ie=   0.0000E+00     eroded_ke=   0.0000E+00
 x-mom=   0.0000E+00     y-mom=   0.0000E+00     z-mom=   0.0000E+00
 x-rbv=   0.0000E+00     y-rbv=   0.0000E+00     z-rbv=   0.0000E+00
                         hgeng=   0.0000E+00




 time =   1.4979E-01
 mat.#=   10             inten=   0.0000E+00     kinen=   0.0000E+00     eroded_ie=   0.0000E+00     eroded_ke=   0.0000E+00
 x-mom=   0.0000E+00     y-mom=   0.0000E+00     z-mom=   0.0000E+00
 x-rbv=   0.0000E+00     y-rbv=   0.0000E+00     z-rbv=   0.0000E+00
                         hgeng=   0.0000E+00


 mat.#=   20             inten=   0.0000E+00     kinen=   0.0000E+00     eroded_ie=   0.0000E+00     eroded_ke=   0.0000E+00
 x-mom=   0.0000E+00     y-mom=   0.0000E+00     z-mom=   0.0000E+00
 x-rbv=   0.0000E+00     y-rbv=   0.0000E+00     z-rbv=   0.0000E+00
                         hgeng=   0.0000E+00


 mat.#=  100             inten=   4.6325E+00     kinen=   8.5503E-01     eroded_ie=   0.0000E+00     eroded_ke=   0.0000E+00
 x-mom=  -4.5693E-13     y-mom=   6.0072E-09     z-mom=   3.0493E-12
 x-rbv=  -5.8819E-11     y-rbv=   7.7329E-07     z-rbv=   3.9252E-10
                         hgeng=   0.0000E+00


 mat.#=  110             inten=   4.0403E-03     kinen=   1.5802E+00     eroded_ie=   0.0000E+00     eroded_ke=   0.0000E+00
 x-mom=  -1.6331E-08     y-mom=   1.9935E-01     z-mom=   3.5539E-09
 x-rbv=  -1.2987E-06     y-rbv=   1.5854E+01     z-rbv=   2.8264E-07
                         hgeng=   0.0000E+00


 mat.#=  120             inten=   4.0403E-03     kinen=   1.5802E+00     eroded_ie=   0.0000E+00     eroded_ke=   0.0000E+00
 x-mom=   1.6332E-08     y-mom=  -1.9935E-01     z-mom=  -3.5609E-09
 x-rbv=   1.2988E-06     y-rbv=  -1.5854E+01     z-rbv=  -2.8319E-07
                         hgeng=   0.0000E+00


 mat.#=  101             inten=   0.0000E+00     kinen=   0.0000E+00     eroded_ie=   0.0000E+00     eroded_ke=   0.0000E+00
 x-mom=   0.0000E+00     y-mom=   0.0000E+00     z-mom=   0.0000E+00
 x-rbv=   0.0000E+00     y-rbv=   0.0000E+00     z-rbv=   0.0000E+00
                         hgeng=   0.0000E+00


 mat.#=  310             inten=   0.0000E+00     kinen=   0.0000E+00     eroded_ie=   0.0000E+00     eroded_ke=   0.0000E+00
 x-mom=   0.0000E+00     y-mom=   0.0000E+00     z-mom=   0.0000E+00
 x-rbv=   0.0000E+00     y-rbv=   0.0000E+00     z-rbv=   0.0000E+00
                         hgeng=   0.0000E+00




 time =   1.5488E-01
 mat.#=   10             inten=   0.0000E+00     kinen=   0.0000E+00     eroded_ie=   0.0000E+00     eroded_ke=   0.0000E+00
 x-mom=   0.0000E+00     y-mom=   0.0000E+00     z-mom=   0.0000E+00
 x-rbv=   0.0000E+00     y-rbv=   0.0000E+00     z-rbv=   0.0000E+00
                         hgeng=   0.0000E+00


 mat.#=   20             inten=   0.0000E+00     kinen=   0.0000E+00     eroded_ie=   0.0000E+00     eroded_ke=   0.0000E+00
 x-mom=   0.0000E+00     y-mom=   0.0000E+00     z-mom=   0.0000E+00
 x-rbv=   0.0000E+00     y-rbv=   0.0000E+00     z-rbv=   0.0000E+00
                         hgeng=   0.0000E+00


 mat.#=  100             inten=   5.5146E+00     kinen=   9.6385E-01     eroded_ie=   0.0000E+00     eroded_ke=   0.0000E+00
 x-mom=  -1.2077E-12     y-mom=   5.9968E-09     z-mom=   5.6959E-12
 x-rbv=  -1.5547E-10     y-rbv=   7.7195E-07     z-rbv=   7.3322E-10
                         hgeng=   0.0000E+00


 mat.#=  110             inten=   4.5144E-03     kinen=   1.8044E+00     eroded_ie=   0.0000E+00     eroded_ke=   0.0000E+00
 x-mom=  -1.8296E-08     y-mom=   2.1302E-01     z-mom=   3.6996E-09
 x-rbv=  -1.4550E-06     y-rbv=   1.6941E+01     z-rbv=   2.9423E-07
                         hgeng=   0.0000E+00


 mat.#=  120             inten=   4.5144E-03     kinen=   1.8044E+00     eroded_ie=   0.0000E+00     eroded_ke=   0.0000E+00
 x-mom=   1.8299E-08     y-mom=  -2.1302E-01     z-mom=  -3.7129E-09
 x-rbv=   1.4553E-06     y-rbv=  -1.6941E+01     z-rbv=  -2.9528E-07
                         hgeng=   0.0000E+00


 mat.#=  101             inten=   0.0000E+00     kinen=   0.0000E+00     eroded_ie=   0.0000E+00     eroded_ke=   0.0000E+00
 x-mom=   0.0000E+00     y-mom=   0.0000E+00     z-mom=   0.0000E+00
 x-rbv=   0.0000E+00     y-rbv=   0.0000E+00     z-rbv=   0.0000E+00
                         hgeng=   0.0000E+00


 mat.#=  310             inten=   0.0000E+00     kinen=   0.0000E+00     eroded_ie=   0.0000E+00     eroded_ke=   0.0000E+00
 x-mom=   0.0000E+00     y-mom=   0.0000E+00     z-mom=   0.0000E+00
 x-rbv=   0.0000E+00     y-rbv=   0.0000E+00     z-rbv=   0.0000E+00
                         hgeng=   0.0000E+00




 time =   1.5996E-01
 mat.#=   10             inten=   0.0000E+00     kinen=   0.0000E+00     eroded_ie=   0.0000E+00     eroded_ke=   0.0000E+00
 x-mom=   0.0000E+00     y-mom=   0.0000E+00     z-mom=   0.0000E+00
 x-rbv=   0.0000E+00     y-rbv=   0.0000E+00     z-rbv=   0.0000E+00
                         hgeng=   0.0000E+00


 mat.#=   20             inten=   0.0000E+00     kinen=   0.0000E+00     eroded_ie=   0.0000E+00     eroded_ke=   0.0000E+00
 x-mom=   0.0000E+00     y-mom=   0.0000E+00     z-mom=   0.0000E+00
 x-rbv=   0.0000E+00     y-rbv=   0.0000E+00     z-rbv=   0.0000E+00
                         hgeng=   0.0000E+00


 mat.#=  100             inten=   6.5356E+00     kinen=   1.0763E+00     eroded_ie=   0.0000E+00     eroded_ke=   0.0000E+00
 x-mom=  -7.7175E-14     y-mom=   6.2180E-09     z-mom=   1.4026E-12
 x-rbv=  -9.9346E-12     y-rbv=   8.0042E-07     z-rbv=   1.8055E-10
                         hgeng=   0.0000E+00


 mat.#=  110             inten=   4.8783E-03     kinen=   2.0565E+00     eroded_ie=   0.0000E+00     eroded_ke=   0.0000E+00
 x-mom=  -1.9320E-08     y-mom=   2.2741E-01     z-mom=   3.8233E-09
 x-rbv=  -1.5365E-06     y-rbv=   1.8086E+01     z-rbv=   3.0406E-07
                         hgeng=   0.0000E+00


 mat.#=  120             inten=   4.8783E-03     kinen=   2.0565E+00     eroded_ie=   0.0000E+00     eroded_ke=   0.0000E+00
 x-mom=   1.9320E-08     y-mom=  -2.2741E-01     z-mom=  -3.8266E-09
 x-rbv=   1.5365E-06     y-rbv=  -1.8086E+01     z-rbv=  -3.0432E-07
                         hgeng=   0.0000E+00


 mat.#=  101             inten=   0.0000E+00     kinen=   0.0000E+00     eroded_ie=   0.0000E+00     eroded_ke=   0.0000E+00
 x-mom=   0.0000E+00     y-mom=   0.0000E+00     z-mom=   0.0000E+00
 x-rbv=   0.0000E+00     y-rbv=   0.0000E+00     z-rbv=   0.0000E+00
                         hgeng=   0.0000E+00


 mat.#=  310             inten=   0.0000E+00     kinen=   0.0000E+00     eroded_ie=   0.0000E+00     eroded_ke=   0.0000E+00
 x-mom=   0.0000E+00     y-mom=   0.0000E+00     z-mom=   0.0000E+00
 x-rbv=   0.0000E+00     y-rbv=   0.0000E+00     z-rbv=   0.0000E+00
                         hgeng=   0.0000E+00




 time =   1.6483E-01
 mat.#=   10             inten=   2.6966E-02     kinen=   1.5617E-01     eroded_ie=   0.0000E+00     eroded_ke=   0.0000E+00
 x-mom=  -4.9665E-06     y-mom=   4.8576E-02     z-mom=  -3.0884E-06
 x-rbv=  -4.2962E-05     y-rbv=   4.2020E-01     z-rbv=  -2.6716E-05
                         hgeng=   0.0000E+00


 mat.#=   20             inten=   0.0000E+00     kinen=   0.0000E+00     eroded_ie=   0.0000E+00     eroded_ke=   0.0000E+00
 x-mom=   0.0000E+00     y-mom=   0.0000E+00     z-mom=   0.0000E+00
 x-rbv=   0.0000E+00     y-rbv=   0.0000E+00     z-rbv=   0.0000E+00
                         hgeng=   0.0000E+00


 mat.#=  100             inten=   7.6592E+00     kinen=   1.1851E+00     eroded_ie=   0.0000E+00     eroded_ke=   0.0000E+00
 x-mom=  -8.0277E-08     y-mom=  -4.1556E-04     z-mom=   8.2903E-09
 x-rbv=  -1.0334E-05     y-rbv=  -5.3494E-02     z-rbv=   1.0672E-06
                         hgeng=   0.0000E+00


 mat.#=  110             inten=   4.2563E-02     kinen=   1.4862E+00     eroded_ie=   0.0000E+00     eroded_ke=   0.0000E+00
 x-mom=   5.0517E-06     y-mom=   1.9235E-01     z-mom=   3.1603E-06
 x-rbv=   4.0175E-04     y-rbv=   1.5297E+01     z-rbv=   2.5133E-04
                         hgeng=   0.0000E+00


 mat.#=  120             inten=   4.9279E-03     kinen=   2.3187E+00     eroded_ie=   0.0000E+00     eroded_ke=   0.0000E+00
 x-mom=   2.0183E-08     y-mom=  -2.4148E-01     z-mom=  -3.9145E-09
 x-rbv=   1.6052E-06     y-rbv=  -1.9204E+01     z-rbv=  -3.1132E-07
                         hgeng=   0.0000E+00


 mat.#=  101             inten=   0.0000E+00     kinen=   0.0000E+00     eroded_ie=   0.0000E+00     eroded_ke=   0.0000E+00
 x-mom=   0.0000E+00     y-mom=   0.0000E+00     z-mom=   0.0000E+00
 x-rbv=   0.0000E+00     y-rbv=   0.0000E+00     z-rbv=   0.0000E+00
                         hgeng=   0.0000E+00


 mat.#=  310             inten=   0.0000E+00     kinen=   0.0000E+00     eroded_ie=   0.0000E+00     eroded_ke=   0.0000E+00
 x-mom=   0.0000E+00     y-mom=   0.0000E+00     z-mom=   0.0000E+00
 x-rbv=   0.0000E+00     y-rbv=   0.0000E+00     z-rbv=   0.0000E+00
                         hgeng=   0.0000E+00




 time =   1.6991E-01
 mat.#=   10             inten=   3.5315E-01     kinen=   1.1214E+00     eroded_ie=   0.0000E+00     eroded_ke=   0.0000E+00
 x-mom=  -4.3363E-05     y-mom=   1.5781E-01     z-mom=  -6.2825E-06
 x-rbv=  -3.7511E-04     y-rbv=   1.3651E+00     z-rbv=  -5.4346E-05
                         hgeng=   0.0000E+00


 mat.#=   20             inten=   7.1210E-03     kinen=   2.3573E-02     eroded_ie=   0.0000E+00     eroded_ke=   0.0000E+00
 x-mom=   2.3682E-06     y-mom=  -9.0242E-03     z-mom=  -7.9868E-07
 x-rbv=   6.1469E-05     y-rbv=  -2.3423E-01     z-rbv=  -2.0730E-05
                         hgeng=   0.0000E+00


 mat.#=  100             inten=   8.8496E+00     kinen=   1.0156E+00     eroded_ie=   0.0000E+00     eroded_ke=   0.0000E+00
 x-mom=   9.0712E-06     y-mom=  -1.7693E-02     z-mom=   1.3076E-06
 x-rbv=   1.1677E-03     y-rbv=  -2.2776E+00     z-rbv=   1.6832E-04
                         hgeng=   0.0000E+00


 mat.#=  110             inten=   4.2586E-01     kinen=   7.6672E-01     eroded_ie=   0.0000E+00     eroded_ke=   0.0000E+00
 x-mom=   2.7737E-05     y-mom=   1.3854E-01     z-mom=   2.6734E-06
 x-rbv=   2.2059E-03     y-rbv=   1.1018E+01     z-rbv=   2.1261E-04
                         hgeng=   0.0000E+00


 mat.#=  120             inten=   1.6274E-02     kinen=   2.4342E+00     eroded_ie=   0.0000E+00     eroded_ke=   0.0000E+00
 x-mom=  -2.5211E-06     y-mom=  -2.4720E-01     z-mom=   1.1684E-06
 x-rbv=  -2.0050E-04     y-rbv=  -1.9660E+01     z-rbv=   9.2924E-05
                         hgeng=   0.0000E+00


 mat.#=  101             inten=   0.0000E+00     kinen=   0.0000E+00     eroded_ie=   0.0000E+00     eroded_ke=   0.0000E+00
 x-mom=   0.0000E+00     y-mom=   0.0000E+00     z-mom=   0.0000E+00
 x-rbv=   0.0000E+00     y-rbv=   0.0000E+00     z-rbv=   0.0000E+00
                         hgeng=   0.0000E+00


 mat.#=  310             inten=   0.0000E+00     kinen=   0.0000E+00     eroded_ie=   0.0000E+00     eroded_ke=   0.0000E+00
 x-mom=   0.0000E+00     y-mom=   0.0000E+00     z-mom=   0.0000E+00
 x-rbv=   0.0000E+00     y-rbv=   0.0000E+00     z-rbv=   0.0000E+00
                         hgeng=   0.0000E+00




 time =   1.7498E-01
 mat.#=   10             inten=   1.1787E+00     kinen=   1.2012E+00     eroded_ie=   0.0000E+00     eroded_ke=   0.0000E+00
 x-mom=   2.4047E-04     y-mom=   1.8061E-01     z-mom=  -1.2044E-05
 x-rbv=   2.0801E-03     y-rbv=   1.5624E+00     z-rbv=  -1.0419E-04
                         hgeng=   0.0000E+00


 mat.#=   20             inten=   2.2689E-01     kinen=   5.5463E-01     eroded_ie=   0.0000E+00     eroded_ke=   0.0000E+00
 x-mom=   2.9020E-05     y-mom=  -5.5728E-02     z-mom=  -6.1728E-05
 x-rbv=   7.5323E-04     y-rbv=  -1.4464E+00     z-rbv=  -1.6022E-03
                         hgeng=   0.0000E+00


 mat.#=  100             inten=   9.7279E+00     kinen=   6.9916E-01     eroded_ie=   0.0000E+00     eroded_ke=   0.0000E+00
 x-mom=  -1.8574E-06     y-mom=  -3.3155E-02     z-mom=   1.3480E-05
 x-rbv=  -2.3910E-04     y-rbv=  -4.2679E+00     z-rbv=   1.7353E-03
                         hgeng=   0.0000E+00


 mat.#=  110             inten=   3.9822E-01     kinen=   9.6858E-01     eroded_ie=   0.0000E+00     eroded_ke=   0.0000E+00
 x-mom=   4.5246E-05     y-mom=   1.5584E-01     z-mom=   2.3453E-06
 x-rbv=   3.5983E-03     y-rbv=   1.2393E+01     z-rbv=   1.8652E-04
                         hgeng=   0.0000E+00


 mat.#=  120             inten=   1.7935E-01     kinen=   1.5710E+00     eroded_ie=   0.0000E+00     eroded_ke=   0.0000E+00
 x-mom=   4.0898E-05     y-mom=  -1.9848E-01     z-mom=   3.4846E-05
 x-rbv=   3.2526E-03     y-rbv=  -1.5785E+01     z-rbv=   2.7712E-03
                         hgeng=   0.0000E+00


 mat.#=  101             inten=   0.0000E+00     kinen=   0.0000E+00     eroded_ie=   0.0000E+00     eroded_ke=   0.0000E+00
 x-mom=   0.0000E+00     y-mom=   0.0000E+00     z-mom=   0.0000E+00
 x-rbv=   0.0000E+00     y-rbv=   0.0000E+00     z-rbv=   0.0000E+00
                         hgeng=   0.0000E+00


 mat.#=  310             inten=   0.0000E+00     kinen=   0.0000E+00     eroded_ie=   0.0000E+00     eroded_ke=   0.0000E+00
 x-mom=   0.0000E+00     y-mom=   0.0000E+00     z-mom=   0.0000E+00
 x-rbv=   0.0000E+00     y-rbv=   0.0000E+00     z-rbv=   0.0000E+00
                         hgeng=   0.0000E+00




 time =   1.7994E-01
 mat.#=   10             inten=   2.4761E+00     kinen=   8.4097E-01     eroded_ie=   0.0000E+00     eroded_ke=   0.0000E+00
 x-mom=   4.1503E-03     y-mom=   1.1433E-01     z-mom=   1.1084E-04
[...]
 x-mom=   0.0000E+00     y-mom=   0.0000E+00     z-mom=   0.0000E+00
 x-rbv=   0.0000E+00     y-rbv=   0.0000E+00     z-rbv=   0.0000E+00
                         hgeng=   0.0000E+00




 time =   4.9599E+00
 mat.#=   10             inten=   8.0553E+00     kinen=   8.5550E-02     eroded_ie=   0.0000E+00     eroded_ke=   0.0000E+00
 x-mom=  -8.5026E-02     y-mom=  -8.0551E-02     z-mom=   1.4891E-03
 x-rbv=  -7.3551E-01     y-rbv=  -6.9680E-01     z-rbv=   1.2881E-02
                         hgeng=   0.0000E+00


 mat.#=   20             inten=   1.7646E+00     kinen=   1.2821E-01     eroded_ie=   0.0000E+00     eroded_ke=   0.0000E+00
 x-mom=   8.1413E-02     y-mom=  -5.1203E-02     z-mom=  -2.8007E-04
 x-rbv=   2.1131E+00     y-rbv=  -1.3290E+00     z-rbv=  -7.2693E-03
                         hgeng=   0.0000E+00


 mat.#=  100             inten=   3.4150E+01     kinen=   1.7447E-02     eroded_ie=   0.0000E+00     eroded_ke=   0.0000E+00
 x-mom=   1.1334E-02     y-mom=  -8.5450E-03     z-mom=   3.2500E-05
 x-rbv=   1.4591E+00     y-rbv=  -1.1000E+00     z-rbv=   4.1836E-03
                         hgeng=   0.0000E+00


 mat.#=  110             inten=   6.2539E+00     kinen=   4.3573E-02     eroded_ie=   0.0000E+00     eroded_ke=   0.0000E+00
 x-mom=   2.1916E-02     y-mom=  -1.8313E-02     z-mom=   9.8828E-05
 x-rbv=   1.7430E+00     y-rbv=  -1.4564E+00     z-rbv=   7.8596E-03
                         hgeng=   0.0000E+00


 mat.#=  120             inten=   6.1063E+00     kinen=   4.8329E-02     eroded_ie=   0.0000E+00     eroded_ke=   0.0000E+00
 x-mom=   2.7458E-02     y-mom=  -1.8946E-02     z-mom=   7.0104E-06
 x-rbv=   2.1837E+00     y-rbv=  -1.5067E+00     z-rbv=   5.5752E-04
                         hgeng=   0.0000E+00


 mat.#=  101             inten=   0.0000E+00     kinen=   0.0000E+00     eroded_ie=   0.0000E+00     eroded_ke=   0.0000E+00
 x-mom=   0.0000E+00     y-mom=   0.0000E+00     z-mom=   0.0000E+00
 x-rbv=   0.0000E+00     y-rbv=   0.0000E+00     z-rbv=   0.0000E+00
                         hgeng=   0.0000E+00


 mat.#=  310             inten=   0.0000E+00     kinen=   0.0000E+00     eroded_ie=   0.0000E+00     eroded_ke=   0.0000E+00
 x-mom=   0.0000E+00     y-mom=   0.0000E+00     z-mom=   0.0000E+00
 x-rbv=   0.0000E+00     y-rbv=   0.0000E+00     z-rbv=   0.0000E+00
                         hgeng=   0.0000E+00




 time =   4.9649E+00
 mat.#=   10             inten=   8.0052E+00     kinen=   1.0840E-01     eroded_ie=   0.0000E+00     eroded_ke=   0.0000E+00
 x-mom=  -1.0454E-01     y-mom=  -7.3279E-02     z-mom=   1.4851E-03
 x-rbv=  -9.0434E-01     y-rbv=  -6.3389E-01     z-rbv=   1.2847E-02
                         hgeng=   0.0000E+00


 mat.#=   20             inten=   1.7638E+00     kinen=   1.2385E-01     eroded_ie=   0.0000E+00     eroded_ke=   0.0000E+00
 x-mom=   8.0583E-02     y-mom=  -5.0666E-02     z-mom=  -3.4277E-04
 x-rbv=   2.0916E+00     y-rbv=  -1.3151E+00     z-rbv=  -8.8969E-03
                         hgeng=   0.0000E+00


 mat.#=  100             inten=   3.4152E+01     kinen=   1.8701E-02     eroded_ie=   0.0000E+00     eroded_ke=   0.0000E+00
 x-mom=   1.1575E-02     y-mom=  -9.0561E-03     z-mom=   8.8874E-06
 x-rbv=   1.4900E+00     y-rbv=  -1.1658E+00     z-rbv=   1.1440E-03
                         hgeng=   0.0000E+00


 mat.#=  110             inten=   6.2540E+00     kinen=   4.5687E-02     eroded_ie=   0.0000E+00     eroded_ke=   0.0000E+00
 x-mom=   2.1936E-02     y-mom=  -1.8918E-02     z-mom=   1.6263E-04
 x-rbv=   1.7446E+00     y-rbv=  -1.5045E+00     z-rbv=   1.2934E-02
                         hgeng=   0.0000E+00


 mat.#=  120             inten=   6.1068E+00     kinen=   4.9316E-02     eroded_ie=   0.0000E+00     eroded_ke=   0.0000E+00
 x-mom=   2.7353E-02     y-mom=  -1.9750E-02     z-mom=   4.0752E-05
 x-rbv=   2.1753E+00     y-rbv=  -1.5707E+00     z-rbv=   3.2410E-03
                         hgeng=   0.0000E+00


 mat.#=  101             inten=   0.0000E+00     kinen=   0.0000E+00     eroded_ie=   0.0000E+00     eroded_ke=   0.0000E+00
 x-mom=   0.0000E+00     y-mom=   0.0000E+00     z-mom=   0.0000E+00
 x-rbv=   0.0000E+00     y-rbv=   0.0000E+00     z-rbv=   0.0000E+00
                         hgeng=   0.0000E+00


 mat.#=  310             inten=   0.0000E+00     kinen=   0.0000E+00     eroded_ie=   0.0000E+00     eroded_ke=   0.0000E+00
 x-mom=   0.0000E+00     y-mom=   0.0000E+00     z-mom=   0.0000E+00
 x-rbv=   0.0000E+00     y-rbv=   0.0000E+00     z-rbv=   0.0000E+00
                         hgeng=   0.0000E+00




 time =   4.9699E+00
 mat.#=   10             inten=   7.9698E+00     kinen=   1.1562E-01     eroded_ie=   0.0000E+00     eroded_ke=   0.0000E+00
 x-mom=  -1.0768E-01     y-mom=  -6.8947E-02     z-mom=   1.2403E-03
 x-rbv=  -9.3150E-01     y-rbv=  -5.9642E-01     z-rbv=   1.0729E-02
                         hgeng=   0.0000E+00


 mat.#=   20             inten=   1.7633E+00     kinen=   1.1767E-01     eroded_ie=   0.0000E+00     eroded_ke=   0.0000E+00
 x-mom=   7.9076E-02     y-mom=  -4.9890E-02     z-mom=  -2.6059E-04
 x-rbv=   2.0525E+00     y-rbv=  -1.2949E+00     z-rbv=  -6.7637E-03
                         hgeng=   0.0000E+00


 mat.#=  100             inten=   3.4151E+01     kinen=   1.9016E-02     eroded_ie=   0.0000E+00     eroded_ke=   0.0000E+00
 x-mom=   1.1496E-02     y-mom=  -9.3682E-03     z-mom=   2.3993E-05
 x-rbv=   1.4798E+00     y-rbv=  -1.2059E+00     z-rbv=   3.0885E-03
                         hgeng=   0.0000E+00


 mat.#=  110             inten=   6.2512E+00     kinen=   4.7739E-02     eroded_ie=   0.0000E+00     eroded_ke=   0.0000E+00
 x-mom=   2.2982E-02     y-mom=  -1.9332E-02     z-mom=   1.2701E-04
 x-rbv=   1.8277E+00     y-rbv=  -1.5374E+00     z-rbv=   1.0101E-02
                         hgeng=   0.0000E+00


 mat.#=  120             inten=   6.1115E+00     kinen=   4.9735E-02     eroded_ie=   0.0000E+00     eroded_ke=   0.0000E+00
 x-mom=   2.7205E-02     y-mom=  -2.0224E-02     z-mom=  -4.5479E-05
 x-rbv=   2.1635E+00     y-rbv=  -1.6084E+00     z-rbv=  -3.6168E-03
                         hgeng=   0.0000E+00


 mat.#=  101             inten=   0.0000E+00     kinen=   0.0000E+00     eroded_ie=   0.0000E+00     eroded_ke=   0.0000E+00
 x-mom=   0.0000E+00     y-mom=   0.0000E+00     z-mom=   0.0000E+00
 x-rbv=   0.0000E+00     y-rbv=   0.0000E+00     z-rbv=   0.0000E+00
                         hgeng=   0.0000E+00


 mat.#=  310             inten=   0.0000E+00     kinen=   0.0000E+00     eroded_ie=   0.0000E+00     eroded_ke=   0.0000E+00
 x-mom=   0.0000E+00     y-mom=   0.0000E+00     z-mom=   0.0000E+00
 x-rbv=   0.0000E+00     y-rbv=   0.0000E+00     z-rbv=   0.0000E+00
                         hgeng=   0.0000E+00




 time =   4.9748E+00
 mat.#=   10             inten=   7.9579E+00     kinen=   1.0151E-01     eroded_ie=   0.0000E+00     eroded_ke=   0.0000E+00
 x-mom=  -9.3271E-02     y-mom=  -6.8872E-02     z-mom=   7.1552E-04
 x-rbv=  -8.0683E-01     y-rbv=  -5.9577E-01     z-rbv=   6.1895E-03
                         hgeng=   0.0000E+00


 mat.#=   20             inten=   1.7627E+00     kinen=   1.1255E-01     eroded_ie=   0.0000E+00     eroded_ke=   0.0000E+00
 x-mom=   7.7685E-02     y-mom=  -4.8819E-02     z-mom=  -2.7372E-04
 x-rbv=   2.0164E+00     y-rbv=  -1.2671E+00     z-rbv=  -7.1046E-03
                         hgeng=   0.0000E+00


 mat.#=  100             inten=   3.4151E+01     kinen=   1.9139E-02     eroded_ie=   0.0000E+00     eroded_ke=   0.0000E+00
 x-mom=   1.1599E-02     y-mom=  -9.3061E-03     z-mom=   1.7310E-05
 x-rbv=   1.4931E+00     y-rbv=  -1.1979E+00     z-rbv=   2.2283E-03
                         hgeng=   0.0000E+00


 mat.#=  110             inten=   6.2463E+00     kinen=   5.0096E-02     eroded_ie=   0.0000E+00     eroded_ke=   0.0000E+00
 x-mom=   2.3522E-02     y-mom=  -1.9633E-02     z-mom=   1.3435E-04
 x-rbv=   1.8707E+00     y-rbv=  -1.5614E+00     z-rbv=   1.0685E-02
                         hgeng=   0.0000E+00


 mat.#=  120             inten=   6.1153E+00     kinen=   4.8944E-02     eroded_ie=   0.0000E+00     eroded_ke=   0.0000E+00
 x-mom=   2.6890E-02     y-mom=  -2.0166E-02     z-mom=  -7.0051E-05
 x-rbv=   2.1385E+00     y-rbv=  -1.6038E+00     z-rbv=  -5.5710E-03
                         hgeng=   0.0000E+00


 mat.#=  101             inten=   0.0000E+00     kinen=   0.0000E+00     eroded_ie=   0.0000E+00     eroded_ke=   0.0000E+00
 x-mom=   0.0000E+00     y-mom=   0.0000E+00     z-mom=   0.0000E+00
 x-rbv=   0.0000E+00     y-rbv=   0.0000E+00     z-rbv=   0.0000E+00
                         hgeng=   0.0000E+00


 mat.#=  310             inten=   0.0000E+00     kinen=   0.0000E+00     eroded_ie=   0.0000E+00     eroded_ke=   0.0000E+00
 x-mom=   0.0000E+00     y-mom=   0.0000E+00     z-mom=   0.0000E+00
 x-rbv=   0.0000E+00     y-rbv=   0.0000E+00     z-rbv=   0.0000E+00
                         hgeng=   0.0000E+00




 time =   4.9798E+00
 mat.#=   10             inten=   7.9665E+00     kinen=   7.4305E-02     eroded_ie=   0.0000E+00     eroded_ke=   0.0000E+00
 x-mom=  -6.6361E-02     y-mom=  -7.1789E-02     z-mom=   1.3707E-04
 x-rbv=  -5.7404E-01     y-rbv=  -6.2100E-01     z-rbv=   1.1857E-03
                         hgeng=   0.0000E+00


 mat.#=   20             inten=   1.7627E+00     kinen=   1.0990E-01     eroded_ie=   0.0000E+00     eroded_ke=   0.0000E+00
 x-mom=   7.6603E-02     y-mom=  -4.7851E-02     z-mom=  -2.6643E-04
 x-rbv=   1.9883E+00     y-rbv=  -1.2420E+00     z-rbv=  -6.9154E-03
                         hgeng=   0.0000E+00


 mat.#=  100             inten=   3.4151E+01     kinen=   1.8895E-02     eroded_ie=   0.0000E+00     eroded_ke=   0.0000E+00
 x-mom=   1.1683E-02     y-mom=  -9.0653E-03     z-mom=   2.8880E-05
 x-rbv=   1.5039E+00     y-rbv=  -1.1670E+00     z-rbv=   3.7177E-03
                         hgeng=   0.0000E+00


 mat.#=  110             inten=   6.2478E+00     kinen=   4.7579E-02     eroded_ie=   0.0000E+00     eroded_ke=   0.0000E+00
 x-mom=   2.2952E-02     y-mom=  -1.9286E-02     z-mom=   9.0881E-05
 x-rbv=   1.8253E+00     y-rbv=  -1.5337E+00     z-rbv=   7.2276E-03
                         hgeng=   0.0000E+00


 mat.#=  120             inten=   6.1178E+00     kinen=   4.9613E-02     eroded_ie=   0.0000E+00     eroded_ke=   0.0000E+00
 x-mom=   2.7465E-02     y-mom=  -1.9801E-02     z-mom=  -7.8291E-05
 x-rbv=   2.1842E+00     y-rbv=  -1.5747E+00     z-rbv=  -6.2264E-03
                         hgeng=   0.0000E+00


 mat.#=  101             inten=   0.0000E+00     kinen=   0.0000E+00     eroded_ie=   0.0000E+00     eroded_ke=   0.0000E+00
 x-mom=   0.0000E+00     y-mom=   0.0000E+00     z-mom=   0.0000E+00
 x-rbv=   0.0000E+00     y-rbv=   0.0000E+00     z-rbv=   0.0000E+00
                         hgeng=   0.0000E+00


 mat.#=  310             inten=   0.0000E+00     kinen=   0.0000E+00     eroded_ie=   0.0000E+00     eroded_ke=   0.0000E+00
 x-mom=   0.0000E+00     y-mom=   0.0000E+00     z-mom=   0.0000E+00
 x-rbv=   0.0000E+00     y-rbv=   0.0000E+00     z-rbv=   0.0000E+00
                         hgeng=   0.0000E+00




 time =   4.9850E+00
 mat.#=   10             inten=   7.9834E+00     kinen=   4.9385E-02     eroded_ie=   0.0000E+00     eroded_ke=   0.0000E+00
 x-mom=  -2.8246E-02     y-mom=  -7.6490E-02     z-mom=  -2.1938E-04
 x-rbv=  -2.4434E-01     y-rbv=  -6.6166E-01     z-rbv=  -1.8978E-03
                         hgeng=   0.0000E+00


 mat.#=   20             inten=   1.7619E+00     kinen=   1.1120E-01     eroded_ie=   0.0000E+00     eroded_ke=   0.0000E+00
 x-mom=   7.6610E-02     y-mom=  -4.7063E-02     z-mom=  -3.5133E-04
 x-rbv=   1.9885E+00     y-rbv=  -1.2216E+00     z-rbv=  -9.1190E-03
                         hgeng=   0.0000E+00


 mat.#=  100             inten=   3.4151E+01     kinen=   1.8362E-02     eroded_ie=   0.0000E+00     eroded_ke=   0.0000E+00
 x-mom=   1.1646E-02     y-mom=  -8.7663E-03     z-mom=   1.6390E-05
 x-rbv=   1.4991E+00     y-rbv=  -1.1285E+00     z-rbv=   2.1098E-03
                         hgeng=   0.0000E+00


 mat.#=  110             inten=   6.2517E+00     kinen=   4.0484E-02     eroded_ie=   0.0000E+00     eroded_ke=   0.0000E+00
 x-mom=   2.2380E-02     y-mom=  -1.8366E-02     z-mom=   1.4896E-04
 x-rbv=   1.7798E+00     y-rbv=  -1.4606E+00     z-rbv=   1.1846E-02
                         hgeng=   0.0000E+00


 mat.#=  120             inten=   6.1191E+00     kinen=   4.7881E-02     eroded_ie=   0.0000E+00     eroded_ke=   0.0000E+00
 x-mom=   2.7098E-02     y-mom=  -1.9169E-02     z-mom=  -4.5835E-05
 x-rbv=   2.1550E+00     y-rbv=  -1.5245E+00     z-rbv=  -3.6452E-03
                         hgeng=   0.0000E+00


 mat.#=  101             inten=   0.0000E+00     kinen=   0.0000E+00     eroded_ie=   0.0000E+00     eroded_ke=   0.0000E+00
 x-mom=   0.0000E+00     y-mom=   0.0000E+00     z-mom=   0.0000E+00
 x-rbv=   0.0000E+00     y-rbv=   0.0000E+00     z-rbv=   0.0000E+00
                         hgeng=   0.0000E+00


 mat.#=  310             inten=   0.0000E+00     kinen=   0.0000E+00     eroded_ie=   0.0000E+00     eroded_ke=   0.0000E+00
 x-mom=   0.0000E+00     y-mom=   0.0000E+00     z-mom=   0.0000E+00
 x-rbv=   0.0000E+00     y-rbv=   0.0000E+00     z-rbv=   0.0000E+00
                         hgeng=   0.0000E+00




 time =   4.9900E+00
 mat.#=   10             inten=   7.9928E+00     kinen=   4.5432E-02     eroded_ie=   0.0000E+00     eroded_ke=   0.0000E+00
 x-mom=   1.4369E-02     y-mom=  -8.2109E-02     z-mom=  -8.6129E-04
 x-rbv=   1.2430E-01     y-rbv=  -7.1027E-01     z-rbv=  -7.4504E-03
                         hgeng=   0.0000E+00


 mat.#=   20             inten=   1.7619E+00     kinen=   1.1315E-01     eroded_ie=   0.0000E+00     eroded_ke=   0.0000E+00
 x-mom=   7.6931E-02     y-mom=  -4.6394E-02     z-mom=  -2.0420E-04
 x-rbv=   1.9968E+00     y-rbv=  -1.2042E+00     z-rbv=  -5.3001E-03
                         hgeng=   0.0000E+00


 mat.#=  100             inten=   3.4151E+01     kinen=   1.6797E-02     eroded_ie=   0.0000E+00     eroded_ke=   0.0000E+00
 x-mom=   1.1170E-02     y-mom=  -8.3331E-03     z-mom=   2.9063E-05
 x-rbv=   1.4378E+00     y-rbv=  -1.0727E+00     z-rbv=   3.7412E-03
                         hgeng=   0.0000E+00


 mat.#=  110             inten=   6.2504E+00     kinen=   3.8258E-02     eroded_ie=   0.0000E+00     eroded_ke=   0.0000E+00
 x-mom=   2.2502E-02     y-mom=  -1.7534E-02     z-mom=   1.0608E-04
 x-rbv=   1.7895E+00     y-rbv=  -1.3945E+00     z-rbv=   8.4360E-03
                         hgeng=   0.0000E+00


 mat.#=  120             inten=   6.1196E+00     kinen=   4.5207E-02     eroded_ie=   0.0000E+00     eroded_ke=   0.0000E+00
 x-mom=   2.6382E-02     y-mom=  -1.8411E-02     z-mom=  -6.8391E-05
 x-rbv=   2.0981E+00     y-rbv=  -1.4642E+00     z-rbv=  -5.4390E-03
                         hgeng=   0.0000E+00


 mat.#=  101             inten=   0.0000E+00     kinen=   0.0000E+00     eroded_ie=   0.0000E+00     eroded_ke=   0.0000E+00
 x-mom=   0.0000E+00     y-mom=   0.0000E+00     z-mom=   0.0000E+00
 x-rbv=   0.0000E+00     y-rbv=   0.0000E+00     z-rbv=   0.0000E+00
                         hgeng=   0.0000E+00


 mat.#=  310             inten=   0.0000E+00     kinen=   0.0000E+00     eroded_ie=   0.0000E+00     eroded_ke=   0.0000E+00
 x-mom=   0.0000E+00     y-mom=   0.0000E+00     z-mom=   0.0000E+00
 x-rbv=   0.0000E+00     y-rbv=   0.0000E+00     z-rbv=   0.0000E+00
                         hgeng=   0.0000E+00




 time =   4.9949E+00
 mat.#=   10             inten=   7.9909E+00     kinen=   6.5720E-02     eroded_ie=   0.0000E+00     eroded_ke=   0.0000E+00
 x-mom=   5.2685E-02     y-mom=  -8.8335E-02     z-mom=  -1.2499E-03
 x-rbv=   4.5575E-01     y-rbv=  -7.6413E-01     z-rbv=  -1.0812E-02
                         hgeng=   0.0000E+00


 mat.#=   20             inten=   1.7632E+00     kinen=   1.1225E-01     eroded_ie=   0.0000E+00     eroded_ke=   0.0000E+00
 x-mom=   7.6420E-02     y-mom=  -4.5870E-02     z-mom=  -1.7669E-04
 x-rbv=   1.9835E+00     y-rbv=  -1.1906E+00     z-rbv=  -4.5862E-03
                         hgeng=   0.0000E+00


 mat.#=  100             inten=   3.4151E+01     kinen=   1.5826E-02     eroded_ie=   0.0000E+00     eroded_ke=   0.0000E+00
 x-mom=   1.1007E-02     y-mom=  -7.8758E-03     z-mom=  -4.0360E-06
 x-rbv=   1.4169E+00     y-rbv=  -1.0138E+00     z-rbv=  -5.1954E-04
                         hgeng=   0.0000E+00


 mat.#=  110             inten=   6.2491E+00     kinen=   3.5005E-02     eroded_ie=   0.0000E+00     eroded_ke=   0.0000E+00
 x-mom=   2.1983E-02     y-mom=  -1.6736E-02     z-mom=   2.0773E-04
 x-rbv=   1.7483E+00     y-rbv=  -1.3310E+00     z-rbv=   1.6520E-02
                         hgeng=   0.0000E+00


 mat.#=  120             inten=   6.1197E+00     kinen=   4.2613E-02     eroded_ie=   0.0000E+00     eroded_ke=   0.0000E+00
 x-mom=   2.5868E-02     y-mom=  -1.7382E-02     z-mom=  -2.5641E-05
 x-rbv=   2.0572E+00     y-rbv=  -1.3824E+00     z-rbv=  -2.0392E-03
                         hgeng=   0.0000E+00


 mat.#=  101             inten=   0.0000E+00     kinen=   0.0000E+00     eroded_ie=   0.0000E+00     eroded_ke=   0.0000E+00
 x-mom=   0.0000E+00     y-mom=   0.0000E+00     z-mom=   0.0000E+00
 x-rbv=   0.0000E+00     y-rbv=   0.0000E+00     z-rbv=   0.0000E+00
                         hgeng=   0.0000E+00


 mat.#=  310             inten=   0.0000E+00     kinen=   0.0000E+00     eroded_ie=   0.0000E+00     eroded_ke=   0.0000E+00
 x-mom=   0.0000E+00     y-mom=   0.0000E+00     z-mom=   0.0000E+00
 x-rbv=   0.0000E+00     y-rbv=   0.0000E+00     z-rbv=   0.0000E+00
                         hgeng=   0.0000E+00




 time =   4.9999E+00
 mat.#=   10             inten=   7.9869E+00     kinen=   9.9113E-02     eroded_ie=   0.0000E+00     eroded_ke=   0.0000E+00
 x-mom=   8.2300E-02     y-mom=  -9.4371E-02     z-mom=  -1.1774E-03
 x-rbv=   7.1193E-01     y-rbv=  -8.1634E-01     z-rbv=  -1.0185E-02
                         hgeng=   0.0000E+00


 mat.#=   20             inten=   1.7680E+00     kinen=   1.0965E-01     eroded_ie=   0.0000E+00     eroded_ke=   0.0000E+00
 x-mom=   7.5787E-02     y-mom=  -4.5526E-02     z-mom=  -2.8345E-04
 x-rbv=   1.9671E+00     y-rbv=  -1.1817E+00     z-rbv=  -7.3572E-03
                         hgeng=   0.0000E+00


 mat.#=  100             inten=   3.4151E+01     kinen=   1.5108E-02     eroded_ie=   0.0000E+00     eroded_ke=   0.0000E+00
 x-mom=   1.0940E-02     y-mom=  -7.4270E-03     z-mom=   6.2421E-05
 x-rbv=   1.4083E+00     y-rbv=  -9.5606E-01     z-rbv=   8.0352E-03
                         hgeng=   0.0000E+00


 mat.#=  110             inten=   6.2484E+00     kinen=   3.3402E-02     eroded_ie=   0.0000E+00     eroded_ke=   0.0000E+00
 x-mom=   2.1572E-02     y-mom=  -1.5911E-02     z-mom=   1.7556E-04
 x-rbv=   1.7155E+00     y-rbv=  -1.2654E+00     z-rbv=   1.3962E-02
                         hgeng=   0.0000E+00


 mat.#=  120             inten=   6.1190E+00     kinen=   4.0127E-02     eroded_ie=   0.0000E+00     eroded_ke=   0.0000E+00
 x-mom=   2.5350E-02     y-mom=  -1.6347E-02     z-mom=  -4.5392E-06
 x-rbv=   2.0160E+00     y-rbv=  -1.3001E+00     z-rbv=  -3.6099E-04
                         hgeng=   0.0000E+00


 mat.#=  101             inten=   0.0000E+00     kinen=   0.0000E+00     eroded_ie=   0.0000E+00     eroded_ke=   0.0000E+00
 x-mom=   0.0000E+00     y-mom=   0.0000E+00     z-mom=   0.0000E+00
 x-rbv=   0.0000E+00     y-rbv=   0.0000E+00     z-rbv=   0.0000E+00
                         hgeng=   0.0000E+00


 mat.#=  310             inten=   0.0000E+00     kinen=   0.0000E+00     eroded_ie=   0.0000E+00     eroded_ke=   0.0000E+00
 x-mom=   0.0000E+00     y-mom=   0.0000E+00     z-mom=   0.0000E+00
 x-rbv=   0.0000E+00     y-rbv=   0.0000E+00     z-rbv=   0.0000E+00
                         hgeng=   0.0000E+00


