 Bolted Connection Type b                                                
                    ls-dyna smp d R13 R13.1.1_27_8731a0 date 07/28/2023

{BEGIN LEGEND}
 Entity #        Title
  1100002                                                                                     
  1200000                                                                                     
{END LEGEND}




 n o d a l   p r i n t   o u t   f o r   t i m e  s t e p       1                              ( at time 0.0000000E+00 )

 nodal point  x-disp     y-disp      z-disp      x-vel       y-vel       z-vel      x-accl      y-accl      z-accl      x-coor      y-coor      z-coor
  1100002  0.00000E+00 0.00000E+00 0.00000E+00 0.00000E+00 0.00000E+00 0.00000E+00 0.00000E+00 0.00000E+00 0.00000E+00 2.74317E-05-7.90000E+00 7.74020E-07
  1200000  0.00000E+00 0.00000E+00 0.00000E+00 0.00000E+00 0.00000E+00 0.00000E+00 0.00000E+00 0.00000E+00 0.00000E+00 2.62525E-05 4.70000E+00 7.74020E-07



 n o d a l   p r i n t   o u t   f o r   t i m e  s t e p       1                              ( at time 0.0000000E+00 )

 nodal point  x-rot      y-rot       z-rot       x-rot vel   y-rot vel   z-rot vel   x-rot acc   y-rot acc   z-rot acc
  1100002  0.00000E+00 0.00000E+00 0.00000E+00 0.00000E+00 0.00000E+00 0.00000E+00 0.00000E+00 0.00000E+00 0.00000E+00
  1200000  0.00000E+00 0.00000E+00 0.00000E+00 0.00000E+00 0.00000E+00 0.00000E+00 0.00000E+00 0.00000E+00 0.00000E+00



 n o d a l   p r i n t   o u t   f o r   t i m e  s t e p      24                              ( at time 4.8730101E-03 )

 nodal point  x-disp     y-disp      z-disp      x-vel       y-vel       z-vel      x-accl      y-accl      z-accl      x-coor      y-coor      z-coor
  1100002 -4.08233E-11 5.95949E-05 4.61685E-14-3.15410E-08 3.25501E-02 6.88246E-11-6.47259E-06 6.67967E+00 1.41236E-08 2.74317E-05-7.89994E+00 7.74020E-07
  1200000  4.07465E-11-5.95949E-05 1.25711E-14 3.14790E-08-3.25501E-02 9.75365E-12 6.45987E-06-6.67967E+00 2.00157E-09 2.62525E-05 4.69994E+00 7.74020E-07



 n o d a l   p r i n t   o u t   f o r   t i m e  s t e p      24                              ( at time 4.8730101E-03 )

 nodal point  x-rot      y-rot       z-rot       x-rot vel   y-rot vel   z-rot vel   x-rot acc   y-rot acc   z-rot acc
  1100002  1.08589E-15 9.76787E-18-9.68476E-14 3.65403E-13 1.43030E-14-1.09942E-10 7.49851E-11 2.93514E-12-2.25615E-08
  1200000 -8.86766E-16 1.52300E-17-8.59699E-14-1.10141E-13 1.92908E-14-1.00715E-10-2.26023E-11 3.95870E-12-2.06680E-08



 n o d a l   p r i n t   o u t   f o r   t i m e  s t e p      48                              ( at time 9.9578902E-03 )

 nodal point  x-disp     y-disp      z-disp      x-vel       y-vel       z-vel      x-accl      y-accl      z-accl      x-coor      y-coor      z-coor
  1100002 -4.25416E-10 3.83035E-04 2.81536E-12-8.35262E-08 9.17679E-02 6.68582E-10-1.02235E-05 1.16459E+01 1.17949E-07 2.74313E-05-7.89962E+00 7.74023E-07
  1200000  4.24536E-10-3.83035E-04 4.48278E-13 8.33380E-08-9.17679E-02 2.23884E-10 1.01987E-05-1.16459E+01 4.21112E-08 2.62529E-05 4.69962E+00 7.74021E-07



 n o d a l   p r i n t   o u t   f o r   t i m e  s t e p      48                              ( at time 9.9578902E-03 )

 nodal point  x-rot      y-rot       z-rot       x-rot vel   y-rot vel   z-rot vel   x-rot acc   y-rot acc   z-rot acc
  1100002 -5.97880E-14 1.65371E-15-6.19696E-12-2.64932E-11 9.76367E-13-3.08688E-09-5.28206E-09 1.89201E-10-5.85449E-07
  1200000  3.10864E-14 1.71022E-15-5.97432E-12-1.87946E-12 9.92162E-13-3.00406E-09-3.47957E-10 1.91326E-10-5.70975E-07



 n o d a l   p r i n t   o u t   f o r   t i m e  s t e p      71                              ( at time 1.4830900E-02 )

 nodal point  x-disp     y-disp      z-disp      x-vel       y-vel       z-vel      x-accl      y-accl      z-accl      x-coor      y-coor      z-coor
  1100002 -3.50066E-10 9.77736E-04 3.65405E-12 1.03256E-07 1.55697E-01-1.41224E-10 3.83299E-05 1.31190E+01-1.66182E-07 2.74314E-05-7.89902E+00 7.74024E-07
  1200000  3.48923E-10-9.77736E-04 1.38335E-12-1.03168E-07-1.55697E-01-6.06877E-11-3.82732E-05-1.31190E+01-5.83975E-08 2.62528E-05 4.69902E+00 7.74022E-07



 n o d a l   p r i n t   o u t   f o r   t i m e  s t e p      71                              ( at time 1.4830900E-02 )

 nodal point  x-rot      y-rot       z-rot       x-rot vel   y-rot vel   z-rot vel   x-rot acc   y-rot acc   z-rot acc
  1100002  7.60318E-14 1.51519E-14-3.44437E-11 1.51342E-10 4.77947E-12-7.35474E-09 3.64939E-08 7.80442E-10-8.75817E-07
  1200000 -8.42039E-13 1.54704E-14-3.37029E-11-4.85800E-10 4.88103E-12-7.26023E-09-9.93062E-08 7.98042E-10-8.73418E-07



 n o d a l   p r i n t   o u t   f o r   t i m e  s t e p      95                              ( at time 1.9915780E-02 )

 nodal point  x-disp     y-disp      z-disp      x-vel       y-vel       z-vel      x-accl      y-accl      z-accl      x-coor      y-coor      z-coor
  1100002 -7.38443E-11 2.08912E-03 5.62041E-12-3.92383E-08 2.88223E-01 2.03760E-09-2.80231E-05 2.60627E+01 4.28491E-07 2.74316E-05-7.89791E+00 7.74026E-07
  1200000  7.29670E-11-2.08912E-03-2.80979E-12 3.91490E-08-2.88223E-01-1.75259E-09 2.79882E-05-2.60627E+01-3.32733E-07 2.62526E-05 4.69791E+00 7.74018E-07



 n o d a l   p r i n t   o u t   f o r   t i m e  s t e p      95                              ( at time 1.9915780E-02 )

 nodal point  x-rot      y-rot       z-rot       x-rot vel   y-rot vel   z-rot vel   x-rot acc   y-rot acc   z-rot acc
  1100002  2.89953E-12 5.27390E-14-5.93990E-11 1.07568E-09 9.91686E-12-1.10584E-09 1.81782E-07 1.01033E-09 1.22892E-06
  1200000 -7.46331E-12 5.38122E-14-5.88936E-11-2.30084E-09 1.00882E-11-1.35191E-09-3.56949E-07 1.02406E-09 1.16194E-06



 n o d a l   p r i n t   o u t   f o r   t i m e  s t e p     118                              ( at time 2.4788791E-02 )

 nodal point  x-disp     y-disp      z-disp      x-vel       y-vel       z-vel      x-accl      y-accl      z-accl      x-coor      y-coor      z-coor
  1100002 -6.34196E-10 3.92066E-03 2.58311E-11-1.44162E-07 4.56867E-01 6.00973E-09-2.15317E-05 3.46078E+01 8.15127E-07 2.74311E-05-7.89608E+00 7.74046E-07
  1200000  6.32360E-10-3.92066E-03-1.88661E-11 1.43983E-07-4.56867E-01-5.24535E-09 2.15131E-05-3.46078E+01-7.16756E-07 2.62531E-05 4.69608E+00 7.74002E-07



 n o d a l   p r i n t   o u t   f o r   t i m e  s t e p     118                              ( at time 2.4788791E-02 )

 nodal point  x-rot      y-rot       z-rot       x-rot vel   y-rot vel   z-rot vel   x-rot acc   y-rot acc   z-rot acc
  1100002  1.21024E-11 1.18847E-13-4.66046E-11 2.73243E-09 1.78453E-11 4.69521E-09 3.39984E-07 1.62700E-09 1.19044E-06
  1200000 -2.58537E-11 1.20667E-13-4.88708E-11-5.26926E-09 1.79820E-11 3.79687E-09-6.09155E-07 1.61989E-09 1.05659E-06



 n o d a l   p r i n t   o u t   f o r   t i m e  s t e p     142                              ( at time 2.9873671E-02 )

 nodal point  x-disp     y-disp      z-disp      x-vel       y-vel       z-vel      x-accl      y-accl      z-accl      x-coor      y-coor      z-coor
  1100002 -1.20637E-09 6.70385E-03 7.11476E-11-7.26029E-08 6.33941E-01 1.14312E-08 1.40730E-05 3.48236E+01 1.06620E-06 2.74305E-05-7.89330E+00 7.74092E-07
  1200000  1.20423E-09-6.70385E-03-6.26058E-11 7.26519E-08-6.33941E-01-1.18786E-08-1.40280E-05-3.48236E+01-1.30451E-06 2.62537E-05 4.69330E+00 7.73958E-07



 n o d a l   p r i n t   o u t   f o r   t i m e  s t e p     142                              ( at time 2.9873671E-02 )

 nodal point  x-rot      y-rot       z-rot       x-rot vel   y-rot vel   z-rot vel   x-rot acc   y-rot acc   z-rot acc
  1100002  3.17701E-11 2.49479E-13-2.88681E-11 4.97169E-09 3.40575E-11 1.19602E-09 4.40377E-07 3.18833E-09-6.88155E-07
  1200000 -6.24919E-11 2.52152E-13-3.78378E-11-9.06978E-09 3.42714E-11-5.25866E-10-7.47416E-07 3.20349E-09-8.50115E-07



 n o d a l   p r i n t   o u t   f o r   t i m e  s t e p     166                              ( at time 3.4958551E-02 )

 nodal point  x-disp     y-disp      z-disp      x-vel       y-vel       z-vel      x-accl      y-accl      z-accl      x-coor      y-coor      z-coor
  1100002 -1.28881E-09 1.05053E-02 1.49594E-10-4.68544E-09 8.65169E-01 1.91700E-08 1.33567E-05 4.54737E+01 1.52192E-06 2.74304E-05-7.88950E+00 7.74170E-07
  1200000  1.28673E-09-1.05053E-02-1.41434E-10 4.64106E-09-8.65169E-01-1.88753E-08-1.33751E-05-4.54736E+01-1.37599E-06 2.62538E-05 4.68949E+00 7.73879E-07



 n o d a l   p r i n t   o u t   f o r   t i m e  s t e p     166                              ( at time 3.4958551E-02 )

 nodal point  x-rot      y-rot       z-rot       x-rot vel   y-rot vel   z-rot vel   x-rot acc   y-rot acc   z-rot acc
  1100002  6.36559E-11 4.75661E-13-3.62579E-11 7.48644E-09 5.41806E-11-2.79386E-09 4.94554E-07 3.95744E-09-7.84657E-07
  1200000 -1.19763E-10 4.79655E-13-5.63976E-11-1.33386E-08 5.44463E-11-5.43837E-09-8.39504E-07 3.96764E-09-9.66101E-07



 n o d a l   p r i n t   o u t   f o r   t i m e  s t e p     189                              ( at time 3.9831561E-02 )

 nodal point  x-disp     y-disp      z-disp      x-vel       y-vel       z-vel      x-accl      y-accl      z-accl      x-coor      y-coor      z-coor
  1100002 -1.75110E-09 1.54176E-02 2.61123E-10-1.72403E-07 1.14184E+00 2.64925E-08-3.44176E-05 5.67752E+01 1.50266E-06 2.74300E-05-7.88458E+00 7.74282E-07
  1200000  1.74851E-09-1.54176E-02-2.51396E-10 1.72224E-07-1.14184E+00-2.57563E-08 3.43900E-05-5.67752E+01-1.41207E-06 2.62542E-05 4.68458E+00 7.73769E-07



 n o d a l   p r i n t   o u t   f o r   t i m e  s t e p     189                              ( at time 3.9831561E-02 )

 nodal point  x-rot      y-rot       z-rot       x-rot vel   y-rot vel   z-rot vel   x-rot acc   y-rot acc   z-rot acc
  1100002  1.06153E-10 7.94581E-13-4.47882E-11 9.80968E-09 7.70800E-11-4.56967E-10 4.76757E-07 4.69921E-09 4.79559E-07
  1200000 -1.95446E-10 7.99617E-13-8.00394E-11-1.75186E-08 7.72533E-11-3.95529E-09-8.57793E-07 4.68025E-09 3.04346E-07



 n o d a l   p r i n t   o u t   f o r   t i m e  s t e p     213                              ( at time 4.4916441E-02 )

 nodal point  x-disp     y-disp      z-disp      x-vel       y-vel       z-vel      x-accl      y-accl      z-accl      x-coor      y-coor      z-coor
  1100002 -2.55935E-09 2.19951E-02 4.09063E-10-1.04669E-07 1.43346E+00 3.12887E-08 1.33206E-05 5.73504E+01 9.43241E-07 2.74292E-05-7.87801E+00 7.74429E-07
  1200000  2.55599E-09-2.19951E-02-3.96303E-10 1.04594E-07-1.43346E+00-3.08129E-08-1.33002E-05-5.73504E+01-9.94427E-07 2.62550E-05 4.67800E+00 7.73624E-07



 n o d a l   p r i n t   o u t   f o r   t i m e  s t e p     213                              ( at time 4.4916441E-02 )

 nodal point  x-rot      y-rot       z-rot       x-rot vel   y-rot vel   z-rot vel   x-rot acc   y-rot acc   z-rot acc
  1100002  1.61723E-10 1.27681E-12-4.39408E-11 1.19249E-08 1.13436E-10 4.32712E-10 4.15989E-07 7.14981E-09 1.74966E-07
  1200000 -2.95600E-10 1.28282E-12-9.89399E-11-2.16841E-08 1.13670E-10-3.78447E-09-8.19205E-07 7.16185E-09 3.35930E-08



 n o d a l   p r i n t   o u t   f o r   t i m e  s t e p     236                              ( at time 4.9789451E-02 )

 nodal point  x-disp     y-disp      z-disp      x-vel       y-vel       z-vel      x-accl      y-accl      z-accl      x-coor      y-coor      z-coor
  1100002 -3.01456E-09 2.97530E-02 5.71815E-10-1.29833E-07 1.74886E+00 3.54105E-08-5.16390E-06 6.47246E+01 8.45826E-07 2.74287E-05-7.87025E+00 7.74592E-07
  1200000  3.01137E-09-2.97530E-02-5.59299E-10 1.29926E-07-1.74886E+00-3.60311E-08 5.19844E-06-6.47246E+01-1.07084E-06 2.62555E-05 4.67025E+00 7.73461E-07



 n o d a l   p r i n t   o u t   f o r   t i m e  s t e p     236                              ( at time 4.9789451E-02 )

 nodal point  x-rot      y-rot       z-rot       x-rot vel   y-rot vel   z-rot vel   x-rot acc   y-rot acc   z-rot acc
  1100002  2.25148E-10 1.93771E-12-3.50577E-11 1.40895E-08 1.56299E-10 3.93033E-09 4.44198E-07 8.79599E-09 7.17754E-07
  1200000 -4.11914E-10 1.94499E-12-1.12381E-10-2.59832E-08 1.56547E-10-1.01680E-09-8.82214E-07 8.79880E-09 5.67959E-07



 n o d a l   p r i n t   o u t   f o r   t i m e  s t e p     260                              ( at time 5.4874331E-02 )

 nodal point  x-disp     y-disp      z-disp      x-vel       y-vel       z-vel      x-accl      y-accl      z-accl      x-coor      y-coor      z-coor
  1100002 -4.03799E-09 3.96765E-02 7.70886E-10-2.60799E-07 2.14507E+00 4.29078E-08-2.57560E-05 7.79189E+01 1.47445E-06 2.74277E-05-7.86032E+00 7.74791E-07
  1200000  4.03445E-09-3.96765E-02-7.57899E-10 2.60568E-07-2.14507E+00-4.20425E-08 2.56923E-05-7.79189E+01-1.18222E-06 2.62565E-05 4.66032E+00 7.73263E-07



 n o d a l   p r i n t   o u t   f o r   t i m e  s t e p     260                              ( at time 5.4874331E-02 )

 nodal point  x-rot      y-rot       z-rot       x-rot vel   y-rot vel   z-rot vel   x-rot acc   y-rot acc   z-rot acc
  1100002  3.04283E-10 2.85678E-12-8.83855E-13 1.70503E-08 2.04636E-10 8.58309E-09 5.82273E-07 9.50605E-09 9.15018E-07
  1200000 -5.58041E-10 2.86498E-12-1.06008E-10-3.14487E-08 2.04761E-10 2.58892E-09-1.07486E-06 9.48190E-09 7.09107E-07



 n o d a l   p r i n t   o u t   f o r   t i m e  s t e p     284                              ( at time 5.9959211E-02 )

 nodal point  x-disp     y-disp      z-disp      x-vel       y-vel       z-vel      x-accl      y-accl      z-accl      x-coor      y-coor      z-coor
  1100002 -5.48284E-09 5.16690E-02 1.01204E-09-2.65171E-07 2.55320E+00 5.16108E-08-8.59775E-07 8.02648E+01 1.71154E-06 2.74262E-05-7.84833E+00 7.75032E-07
  1200000  5.47823E-09-5.16690E-02-9.94197E-10 2.65075E-07-2.55320E+00-5.11433E-08 8.86278E-07-8.02648E+01-1.78977E-06 2.62580E-05 4.64833E+00 7.73026E-07



 n o d a l   p r i n t   o u t   f o r   t i m e  s t e p     284                              ( at time 5.9959211E-02 )

 nodal point  x-rot      y-rot       z-rot       x-rot vel   y-rot vel   z-rot vel   x-rot acc   y-rot acc   z-rot acc
  1100002  4.00550E-10 4.05744E-12 3.84808E-11 2.07795E-08 2.68566E-10 5.57454E-09 7.33393E-07 1.25727E-08-5.91665E-07
  1200000 -7.34745E-10 4.06622E-12-1.00499E-10-3.79570E-08 2.68696E-10-1.73297E-09-1.27993E-06 1.25735E-08-8.49949E-07



 n o d a l   p r i n t   o u t   f o r   t i m e  s t e p     307                              ( at time 6.4832221E-02 )

 nodal point  x-disp     y-disp      z-disp      x-vel       y-vel       z-vel      x-accl      y-accl      z-accl      x-coor      y-coor      z-coor
  1100002 -6.39876E-09 6.51379E-02 1.28699E-09-1.39014E-07 2.96626E+00 6.13125E-08 2.58890E-05 8.47644E+01 1.99091E-06 2.74253E-05-7.83486E+00 7.75307E-07
  1200000  6.39437E-09-6.51379E-02-1.27019E-09 1.39080E-07-2.96626E+00-6.16909E-08-2.58557E-05-8.47644E+01-2.16450E-06 2.62589E-05 4.63486E+00 7.72750E-07



 n o d a l   p r i n t   o u t   f o r   t i m e  s t e p     307                              ( at time 6.4832221E-02 )

 nodal point  x-rot      y-rot       z-rot       x-rot vel   y-rot vel   z-rot vel   x-rot acc   y-rot acc   z-rot acc
  1100002  5.12265E-10 5.55477E-12 5.14933E-11 2.49801E-08 3.43801E-10 1.10764E-09 8.62017E-07 1.54391E-08-9.16661E-07
  1200000 -9.37804E-10 5.56413E-12-1.26812E-10-4.52449E-08 3.43887E-10-7.70459E-09-1.49557E-06 1.54302E-08-1.22545E-06



 n o d a l   p r i n t   o u t   f o r   t i m e  s t e p     331                              ( at time 6.9917102E-02 )

 nodal point  x-disp     y-disp      z-disp      x-vel       y-vel       z-vel      x-accl      y-accl      z-accl      x-coor      y-coor      z-coor
  1100002 -7.49552E-09 8.15198E-02 1.63329E-09-3.32087E-07 3.46725E+00 7.44992E-08-3.79701E-05 9.85243E+01 2.59330E-06 2.74242E-05-7.81848E+00 7.75654E-07
  1200000  7.49077E-09-8.15198E-02-1.61531E-09 3.31913E-07-3.46725E+00-7.37641E-08 3.79229E-05-9.85243E+01-2.37434E-06 2.62600E-05 4.61848E+00 7.72405E-07



 n o d a l   p r i n t   o u t   f o r   t i m e  s t e p     331                              ( at time 6.9917102E-02 )

 nodal point  x-rot      y-rot       z-rot       x-rot vel   y-rot vel   z-rot vel   x-rot acc   y-rot acc   z-rot acc
  1100002  6.51908E-10 7.51856E-12 6.91358E-11 2.97740E-08 4.26207E-10 7.07220E-09 9.42766E-07 1.62060E-08 1.17300E-06
  1200000 -1.19026E-09 7.52808E-12-1.58694E-10-5.38027E-08 4.26195E-10-3.53831E-09-1.68298E-06 1.61868E-08 8.19347E-07



 n o d a l   p r i n t   o u t   f o r   t i m e  s t e p     354                              ( at time 7.4790112E-02 )

 nodal point  x-disp     y-disp      z-disp      x-vel       y-vel       z-vel      x-accl      y-accl      z-accl      x-coor      y-coor      z-coor
  1100002 -9.46955E-09 9.96991E-02 2.02598E-09-4.18352E-07 3.97086E+00 8.61619E-08-1.77025E-05 1.03349E+02 2.39332E-06 2.74222E-05-7.80030E+00 7.76046E-07
  1200000  9.46394E-09-9.96991E-02-2.00482E-09 4.18178E-07-3.97086E+00-8.54733E-08 1.77026E-05-1.03349E+02-2.40287E-06 2.62619E-05 4.60030E+00 7.72016E-07



 n o d a l   p r i n t   o u t   f o r   t i m e  s t e p     354                              ( at time 7.4790112E-02 )

 nodal point  x-rot      y-rot       z-rot       x-rot vel   y-rot vel   z-rot vel   x-rot acc   y-rot acc   z-rot acc
  1100002  8.08537E-10 9.82551E-12 1.20299E-10 3.42657E-08 5.20560E-10 1.24957E-08 9.21742E-07 1.93623E-08 1.11296E-06
  1200000 -1.47379E-09 9.83490E-12-1.63564E-10-6.21628E-08 5.20535E-10 2.11668E-10-1.71559E-06 1.93596E-08 7.69539E-07



 n o d a l   p r i n t   o u t   f o r   t i m e  s t e p     378                              ( at time 7.9874992E-02 )

 nodal point  x-disp     y-disp      z-disp      x-vel       y-vel       z-vel      x-accl      y-accl      z-accl      x-coor      y-coor      z-coor
  1100002 -1.14674E-08 1.21292E-01 2.49258E-09-3.72070E-07 4.50615E+00 9.69644E-08 9.10183E-06 1.05270E+02 2.12444E-06 2.74202E-05-7.77871E+00 7.76513E-07
  1200000  1.14615E-08-1.21292E-01-2.46978E-09 3.72100E-07-4.50615E+00-9.70078E-08-9.06171E-06-1.05270E+02-2.26839E-06 2.62639E-05 4.57871E+00 7.71551E-07



 n o d a l   p r i n t   o u t   f o r   t i m e  s t e p     378                              ( at time 7.9874992E-02 )

 nodal point  x-rot      y-rot       z-rot       x-rot vel   y-rot vel   z-rot vel   x-rot acc   y-rot acc   z-rot acc
  1100002  9.94533E-10 1.27846E-11 1.84156E-10 3.86906E-08 6.40811E-10 1.21872E-08 8.70222E-07 2.36488E-08-6.06732E-08
  1200000 -1.81231E-09 1.27939E-11-1.66374E-10-7.06115E-08 6.40805E-10-1.67132E-09-1.66153E-06 2.36525E-08-3.70312E-07



 n o d a l   p r i n t   o u t   f o r   t i m e  s t e p     402                              ( at time 8.4959872E-02 )

 nodal point  x-disp     y-disp      z-disp      x-vel       y-vel       z-vel      x-accl      y-accl      z-accl      x-coor      y-coor      z-coor
  1100002 -1.34436E-08 1.45769E-01 3.01541E-09-4.36513E-07 5.10873E+00 1.08066E-07-1.26735E-05 1.18504E+02 2.18329E-06 2.74183E-05-7.75423E+00 7.77036E-07
  1200000  1.34378E-08-1.45769E-01-2.99317E-09 4.36455E-07-5.10872E+00-1.08250E-07 1.26561E-05-1.18504E+02-2.21097E-06 2.62659E-05 4.55423E+00 7.71027E-07



 n o d a l   p r i n t   o u t   f o r   t i m e  s t e p     402                              ( at time 8.4959872E-02 )

 nodal point  x-rot      y-rot       z-rot       x-rot vel   y-rot vel   z-rot vel   x-rot acc   y-rot acc   z-rot acc
  1100002  1.20321E-09 1.63770E-11 2.46536E-10 4.32464E-08 7.67410E-10 1.28593E-08 8.95948E-07 2.48972E-08 1.32183E-07
  1200000 -2.19403E-09 1.63863E-11-1.78680E-10-7.92382E-08 7.67416E-10-2.61038E-09-1.69655E-06 2.48994E-08-1.84677E-07



 n o d a l   p r i n t   o u t   f o r   t i m e  s t e p     425                              ( at time 8.9832882E-02 )

 nodal point  x-disp     y-disp      z-disp      x-vel       y-vel       z-vel      x-accl      y-accl      z-accl      x-coor      y-coor      z-coor
  1100002 -1.59334E-08 1.72226E-01 3.57320E-09-5.65022E-07 5.72427E+00 1.19876E-07-2.63716E-05 1.26317E+02 2.42361E-06 2.74158E-05-7.72777E+00 7.77594E-07
  1200000  1.59265E-08-1.72226E-01-3.54702E-09 5.64720E-07-5.72427E+00-1.18594E-07 2.63214E-05-1.26317E+02-2.12272E-06 2.62684E-05 4.52777E+00 7.70473E-07



 n o d a l   p r i n t   o u t   f o r   t i m e  s t e p     425                              ( at time 8.9832882E-02 )

 nodal point  x-rot      y-rot       z-rot       x-rot vel   y-rot vel   z-rot vel   x-rot acc   y-rot acc   z-rot acc
  1100002  1.42584E-09 2.04508E-11 3.13170E-10 4.79914E-08 9.02750E-10 1.39705E-08 9.73724E-07 2.77735E-08 2.28027E-07
  1200000 -2.60229E-09 2.04603E-11-1.91623E-10-8.80454E-08 9.02783E-10-3.16848E-09-1.80733E-06 2.77789E-08-1.14528E-07



 n o d a l   p r i n t   o u t   f o r   t i m e  s t e p     449                              ( at time 9.4917762E-02 )

 nodal point  x-disp     y-disp      z-disp      x-vel       y-vel       z-vel      x-accl      y-accl      z-accl      x-coor      y-coor      z-coor
  1100002 -1.86094E-08 2.03032E-01 4.21053E-09-4.68983E-07 6.36873E+00 1.30546E-07 1.88873E-05 1.26740E+02 2.09838E-06 2.74131E-05-7.69697E+00 7.78231E-07
  1200000  1.86019E-08-2.03032E-01-4.18108E-09 4.69019E-07-6.36873E+00-1.30496E-07-1.88207E-05-1.26740E+02-2.34058E-06 2.62711E-05 4.49697E+00 7.69839E-07



 n o d a l   p r i n t   o u t   f o r   t i m e  s t e p     449                              ( at time 9.4917762E-02 )

 nodal point  x-rot      y-rot       z-rot       x-rot vel   y-rot vel   z-rot vel   x-rot acc   y-rot acc   z-rot acc
  1100002  1.68416E-09 2.54809E-11 3.80275E-10 5.34999E-08 1.07263E-09 1.27571E-08 1.08332E-06 3.34082E-08-2.38615E-07
  1200000 -3.07624E-09 2.54906E-11-2.16691E-10-9.81562E-08 1.07271E-09-6.32572E-09-1.98841E-06 3.34189E-08-6.20907E-07



 n o d a l   p r i n t   o u t   f o r   t i m e  s t e p     472                              ( at time 9.9790772E-02 )

 nodal point  x-disp     y-disp      z-disp      x-vel       y-vel       z-vel      x-accl      y-accl      z-accl      x-coor      y-coor      z-coor
  1100002 -2.10497E-08 2.35744E-01 4.87585E-09-5.77360E-07 7.03967E+00 1.43135E-07-2.22403E-05 1.37685E+02 2.58341E-06 2.74107E-05-7.66426E+00 7.78896E-07
  1200000  2.10425E-08-2.35744E-01-4.84822E-09 5.77303E-07-7.03967E+00-1.42954E-07 2.22212E-05-1.37685E+02-2.55657E-06 2.62735E-05 4.46426E+00 7.69172E-07



 n o d a l   p r i n t   o u t   f o r   t i m e  s t e p     472                              ( at time 9.9790772E-02 )

 nodal point  x-rot      y-rot       z-rot       x-rot vel   y-rot vel   z-rot vel   x-rot acc   y-rot acc   z-rot acc
  1100002  1.95992E-09 3.11480E-11 4.53270E-10 5.95472E-08 1.24615E-09 1.83316E-08 1.24097E-06 3.56081E-08 1.14395E-06
  1200000 -3.58204E-09 3.11584E-11-2.42164E-10-1.09183E-07 1.24631E-09-2.96691E-09-2.26293E-06 3.56241E-08 6.89269E-07



 n o d a l   p r i n t   o u t   f o r   t i m e  s t e p     496                              ( at time 1.0487565E-01 )

 nodal point  x-disp     y-disp      z-disp      x-vel       y-vel       z-vel      x-accl      y-accl      z-accl      x-coor      y-coor      z-coor
  1100002 -2.45770E-08 2.73531E-01 5.64497E-09-7.74217E-07 7.79552E+00 1.58612E-07-3.87141E-05 1.48647E+02 3.04366E-06 2.74071E-05-7.62647E+00 7.79665E-07
  1200000  2.45687E-08-2.73531E-01-5.61294E-09 7.73974E-07-7.79552E+00-1.57689E-07 3.86776E-05-1.48647E+02-2.89775E-06 2.62770E-05 4.42647E+00 7.68407E-07



 n o d a l   p r i n t   o u t   f o r   t i m e  s t e p     496                              ( at time 1.0487565E-01 )

 nodal point  x-rot      y-rot       z-rot       x-rot vel   y-rot vel   z-rot vel   x-rot acc   y-rot acc   z-rot acc
  1100002  2.28088E-09 3.79837E-11 5.68669E-10 6.64519E-08 1.43851E-09 2.56527E-08 1.35790E-06 3.78301E-08 1.43977E-06
  1200000 -4.17039E-09 3.79948E-11-2.41881E-10-1.21810E-07 1.43863E-09 1.76352E-09-2.48324E-06 3.78227E-08 9.30292E-07



 n o d a l   p r i n t   o u t   f o r   t i m e  s t e p     520                              ( at time 1.0996053E-01 )

 nodal point  x-disp     y-disp      z-disp      x-vel       y-vel       z-vel      x-accl      y-accl      z-accl      x-coor      y-coor      z-coor
  1100002 -2.85359E-08 3.15175E-01 6.49372E-09-7.55513E-07 8.55358E+00 1.74310E-07 3.67830E-06 1.49082E+02 3.08726E-06 2.74032E-05-7.58483E+00 7.80514E-07
  1200000  2.85268E-08-3.15175E-01-6.45805E-09 7.55447E-07-8.55358E+00-1.74104E-07-3.64348E-06-1.49082E+02-3.22815E-06 2.62810E-05 4.38482E+00 7.67562E-07



 n o d a l   p r i n t   o u t   f o r   t i m e  s t e p     520                              ( at time 1.0996053E-01 )

 nodal point  x-rot      y-rot       z-rot       x-rot vel   y-rot vel   z-rot vel   x-rot acc   y-rot acc   z-rot acc
  1100002  2.63723E-09 4.58833E-11 6.97703E-10 7.33966E-08 1.66481E-09 2.38288E-08 1.36574E-06 4.45046E-08-3.58696E-07
  1200000 -4.82395E-09 4.58951E-11-2.41153E-10-1.34717E-07 1.66497E-09-2.62280E-09-2.53812E-06 4.45121E-08-8.62619E-07



 n o d a l   p r i n t   o u t   f o r   t i m e  s t e p     543                              ( at time 1.1483354E-01 )

 nodal point  x-disp     y-disp      z-disp      x-vel       y-vel       z-vel      x-accl      y-accl      z-accl      x-coor      y-coor      z-coor
  1100002 -3.20361E-08 3.58776E-01 7.38163E-09-7.14326E-07 9.31888E+00 1.89407E-07 8.45209E-06 1.57049E+02 3.09798E-06 2.73997E-05-7.54123E+00 7.81402E-07
  1200000  3.20269E-08-3.58776E-01-7.34552E-09 7.14336E-07-9.31888E+00-1.89317E-07-8.43648E-06-1.57049E+02-3.12207E-06 2.62845E-05 4.34122E+00 7.66675E-07



 n o d a l   p r i n t   o u t   f o r   t i m e  s t e p     543                              ( at time 1.1483354E-01 )

 nodal point  x-rot      y-rot       z-rot       x-rot vel   y-rot vel   z-rot vel   x-rot acc   y-rot acc   z-rot acc
  1100002  3.01147E-09 5.45916E-11 8.04925E-10 7.98965E-08 1.89995E-09 2.13793E-08 1.33388E-06 4.82545E-08-5.02659E-07
  1200000 -5.51192E-09 5.46045E-11-2.68917E-10-1.47123E-07 1.90020E-09-7.46380E-09-2.54596E-06 4.82718E-08-9.93433E-07



 n o d a l   p r i n t   o u t   f o r   t i m e  s t e p     567                              ( at time 1.1991842E-01 )

 nodal point  x-disp     y-disp      z-disp      x-vel       y-vel       z-vel      x-accl      y-accl      z-accl      x-coor      y-coor      z-coor
  1100002 -3.62031E-08 4.08436E-01 8.38547E-09-9.34578E-07 1.01842E+01 2.04696E-07-4.33152E-05 1.70175E+02 3.00667E-06 2.73955E-05-7.49157E+00 7.82406E-07
  1200000  3.61935E-08-4.08436E-01-8.34769E-09 9.34333E-07-1.01842E+01-2.03781E-07 4.32648E-05-1.70175E+02-2.84435E-06 2.62887E-05 4.29156E+00 7.65673E-07



 n o d a l   p r i n t   o u t   f o r   t i m e  s t e p     567                              ( at time 1.1991842E-01 )

 nodal point  x-rot      y-rot       z-rot       x-rot vel   y-rot vel   z-rot vel   x-rot acc   y-rot acc   z-rot acc
  1100002  3.43546E-09 6.49165E-11 9.25748E-10 8.65758E-08 2.15388E-09 2.67203E-08 1.31356E-06 4.99378E-08 1.05037E-06
  1200000 -6.29462E-09 6.49304E-11-3.01333E-10-1.60209E-07 2.15403E-09-4.59895E-09-2.57345E-06 4.99183E-08 5.63407E-07



 n o d a l   p r i n t   o u t   f o r   t i m e  s t e p     590                              ( at time 1.2479143E-01 )

 nodal point  x-disp     y-disp      z-disp      x-vel       y-vel       z-vel      x-accl      y-accl      z-accl      x-coor      y-coor      z-coor
  1100002 -4.09796E-08 4.60197E-01 9.41503E-09-9.80391E-07 1.10228E+01 2.16680E-07-9.40143E-06 1.72082E+02 2.45945E-06 2.73907E-05-7.43980E+00 7.83435E-07
  1200000  4.09686E-08-4.60197E-01-9.37125E-09 9.80181E-07-1.10228E+01-2.15608E-07 9.40856E-06-1.72082E+02-2.42719E-06 2.62934E-05 4.23980E+00 7.64649E-07



 n o d a l   p r i n t   o u t   f o r   t i m e  s t e p     590                              ( at time 1.2479143E-01 )

 nodal point  x-rot      y-rot       z-rot       x-rot vel   y-rot vel   z-rot vel   x-rot acc   y-rot acc   z-rot acc
  1100002  3.87357E-09 7.60987E-11 1.06756E-09 9.29865E-08 2.43009E-09 3.05744E-08 1.31554E-06 5.66813E-08 7.90903E-07
  1200000 -7.10752E-09 7.61133E-11-3.18092E-10-1.72922E-07 2.43026E-09-3.08977E-09-2.60901E-06 5.66850E-08 3.09702E-07



 n o d a l   p r i n t   o u t   f o r   t i m e  s t e p     614                              ( at time 1.2987631E-01 )

 nodal point  x-disp     y-disp      z-disp      x-vel       y-vel       z-vel      x-accl      y-accl      z-accl      x-coor      y-coor      z-coor
  1100002 -4.58987E-08 5.18599E-01 1.05453E-08-9.84938E-07 1.19212E+01 2.27801E-07-8.94096E-07 1.76680E+02 2.18706E-06 2.73858E-05-7.38140E+00 7.84566E-07
  1200000  4.58877E-08-5.18599E-01-1.05005E-08 9.85053E-07-1.19212E+01-2.28101E-07 9.58242E-07-1.76680E+02-2.45679E-06 2.62984E-05 4.18140E+00 7.63520E-07



 n o d a l   p r i n t   o u t   f o r   t i m e  s t e p     614                              ( at time 1.2987631E-01 )

 nodal point  x-rot      y-rot       z-rot       x-rot vel   y-rot vel   z-rot vel   x-rot acc   y-rot acc   z-rot acc
  1100002  4.36510E-09 8.92928E-11 1.22949E-09 1.00187E-07 2.74821E-09 3.34782E-08 1.41605E-06 6.25622E-08 5.71059E-07
  1200000 -8.02343E-09 8.93085E-11-3.34154E-10-1.86947E-07 2.74841E-09-2.81217E-09-2.75820E-06 6.25686E-08 5.45918E-08



 n o d a l   p r i n t   o u t   f o r   t i m e  s t e p     638                              ( at time 1.3496119E-01 )

 nodal point  x-disp     y-disp      z-disp      x-vel       y-vel       z-vel      x-accl      y-accl      z-accl      x-coor      y-coor      z-coor
  1100002 -5.13428E-08 5.81761E-01 1.17384E-08-1.15647E-06 1.28912E+01 2.41584E-07-3.37340E-05 1.90768E+02 2.71052E-06 2.73804E-05-7.31824E+00 7.85759E-07
  1200000  5.13313E-08-5.81761E-01-1.16925E-08 1.15619E-06-1.28912E+01-2.40410E-07 3.36557E-05-1.90768E+02-2.42075E-06 2.63038E-05 4.11824E+00 7.62328E-07



 n o d a l   p r i n t   o u t   f o r   t i m e  s t e p     638                              ( at time 1.3496119E-01 )

 nodal point  x-rot      y-rot       z-rot       x-rot vel   y-rot vel   z-rot vel   x-rot acc   y-rot acc   z-rot acc
  1100002  4.89570E-09 1.04125E-10 1.41376E-09 1.08320E-07 3.07423E-09 3.86980E-08 1.59944E-06 6.41153E-08 1.02654E-06
  1200000 -9.01427E-09 1.04141E-10-3.42288E-10-2.02366E-07 3.07430E-09-6.30422E-10-3.03223E-06 6.40893E-08 4.29067E-07



 n o d a l   p r i n t   o u t   f o r   t i m e  s t e p     661                              ( at time 1.3983420E-01 )

 nodal point  x-disp     y-disp      z-disp      x-vel       y-vel       z-vel      x-accl      y-accl      z-accl      x-coor      y-coor      z-coor
  1100002 -5.73275E-08 6.47003E-01 1.29508E-08-1.25928E-06 1.38429E+01 2.55071E-07-2.10977E-05 1.95300E+02 2.76760E-06 2.73744E-05-7.25300E+00 7.86971E-07
  1200000  5.73145E-08-6.47003E-01-1.28977E-08 1.25906E-06-1.38429E+01-2.54051E-07 2.11114E-05-1.95300E+02-2.79933E-06 2.63098E-05 4.05300E+00 7.61123E-07



 n o d a l   p r i n t   o u t   f o r   t i m e  s t e p     661                              ( at time 1.3983420E-01 )

 nodal point  x-rot      y-rot       z-rot       x-rot vel   y-rot vel   z-rot vel   x-rot acc   y-rot acc   z-rot acc
  1100002  5.44478E-09 1.19960E-10 1.60714E-09 1.16723E-07 3.41749E-09 3.95084E-08 1.72440E-06 7.04406E-08 1.66299E-07
  1200000 -1.00404E-08 1.19977E-10-3.48527E-10-2.18231E-07 3.41751E-09-2.97487E-09-3.25570E-06 7.04307E-08-4.81108E-07



 n o d a l   p r i n t   o u t   f o r   t i m e  s t e p     685                              ( at time 1.4491908E-01 )

 nodal point  x-disp     y-disp      z-disp      x-vel       y-vel       z-vel      x-accl      y-accl      z-accl      x-coor      y-coor      z-coor
  1100002 -6.35114E-08 7.20031E-01 1.42848E-08-1.19047E-06 1.48465E+01 2.68743E-07 1.35333E-05 1.97379E+02 2.68877E-06 2.73682E-05-7.17997E+00 7.88305E-07
  1200000  6.34980E-08-7.20031E-01-1.42293E-08 1.19048E-06-1.48465E+01-2.68826E-07-1.34881E-05-1.97379E+02-2.90564E-06 2.63160E-05 3.97997E+00 7.59791E-07



 n o d a l   p r i n t   o u t   f o r   t i m e  s t e p     685                              ( at time 1.4491908E-01 )

 nodal point  x-rot      y-rot       z-rot       x-rot vel   y-rot vel   z-rot vel   x-rot acc   y-rot acc   z-rot acc
  1100002  6.06191E-09 1.38383E-10 1.80132E-09 1.25639E-07 3.81572E-09 3.77002E-08 1.75337E-06 7.83174E-08-3.55585E-07
  1200000 -1.11956E-08 1.38400E-10-3.79292E-10-2.35504E-07 3.81575E-09-8.16505E-09-3.39688E-06 7.83182E-08-1.02071E-06



 n o d a l   p r i n t   o u t   f o r   t i m e  s t e p     708                              ( at time 1.4979209E-01 )

 nodal point  x-disp     y-disp      z-disp      x-vel       y-vel       z-vel      x-accl      y-accl      z-accl      x-coor      y-coor      z-coor
  1100002 -6.96627E-08 7.94957E-01 1.56304E-08-1.37572E-06 1.58719E+01 2.82867E-07-3.80169E-05 2.10421E+02 2.89848E-06 2.73620E-05-7.10504E+00 7.89651E-07
  1200000  6.96492E-08-7.94957E-01-1.55733E-08 1.37559E-06-1.58719E+01-2.81969E-07 3.79864E-05-2.10420E+02-2.69699E-06 2.63221E-05 3.90504E+00 7.58447E-07



 n o d a l   p r i n t   o u t   f o r   t i m e  s t e p     708                              ( at time 1.4979209E-01 )

 nodal point  x-rot      y-rot       z-rot       x-rot vel   y-rot vel   z-rot vel   x-rot acc   y-rot acc   z-rot acc
  1100002  6.69576E-09 1.57971E-10 1.99832E-09 1.34113E-07 4.20761E-09 4.42653E-08 1.73900E-06 8.04195E-08 1.34724E-06
  1200000 -1.23864E-08 1.57988E-10-4.14155E-10-2.52569E-07 4.20754E-09-4.88784E-09-3.50201E-06 8.04007E-08 6.72523E-07



 n o d a l   p r i n t   o u t   f o r   t i m e  s t e p     732                              ( at time 1.5487697E-01 )

 nodal point  x-disp     y-disp      z-disp      x-vel       y-vel       z-vel      x-accl      y-accl      z-accl      x-coor      y-coor      z-coor
  1100002 -7.73076E-08 8.78602E-01 1.71019E-08-1.57272E-06 1.69812E+01 2.95278E-07-3.87428E-05 2.18160E+02 2.44077E-06 2.73544E-05-7.02140E+00 7.91122E-07
  1200000  7.72926E-08-8.78602E-01-1.70389E-08 1.57236E-06-1.69812E+01-2.93574E-07 3.86982E-05-2.18160E+02-2.28233E-06 2.63298E-05 3.82140E+00 7.56981E-07



 n o d a l   p r i n t   o u t   f o r   t i m e  s t e p     732                              ( at time 1.5487697E-01 )

 nodal point  x-rot      y-rot       z-rot       x-rot vel   y-rot vel   z-rot vel   x-rot acc   y-rot acc   z-rot acc
  1100002  7.40047E-09 1.80498E-10 2.24676E-09 1.42647E-07 4.64287E-09 5.19497E-08 1.67826E-06 8.55994E-08 1.51122E-06
  1200000 -1.37180E-08 1.80514E-10-4.24568E-10-2.70401E-07 4.64281E-09-5.39177E-10-3.50676E-06 8.56000E-08 8.55215E-07



 n o d a l   p r i n t   o u t   f o r   t i m e  s t e p     756                              ( at time 1.5996185E-01 )

 nodal point  x-disp     y-disp      z-disp      x-vel       y-vel       z-vel      x-accl      y-accl      z-accl      x-coor      y-coor      z-coor
  1100002 -8.53269E-08 9.67887E-01 1.86268E-08-1.56464E-06 1.80942E+01 3.03693E-07 1.58994E-06 2.18879E+02 1.65497E-06 2.73464E-05-6.93211E+00 7.92647E-07
  1200000  8.53108E-08-9.67887E-01-1.85577E-08 1.56462E-06-1.80942E+01-3.03267E-07-1.52350E-06-2.18879E+02-1.90619E-06 2.63378E-05 3.73211E+00 7.55463E-07



 n o d a l   p r i n t   o u t   f o r   t i m e  s t e p     756                              ( at time 1.5996185E-01 )

 nodal point  x-rot      y-rot       z-rot       x-rot vel   y-rot vel   z-rot vel   x-rot acc   y-rot acc   z-rot acc
  1100002  8.14794E-09 2.05373E-10 2.51390E-09 1.51019E-07 5.12764E-09 5.23445E-08 1.64659E-06 9.53359E-08 7.76504E-08
  1200000 -1.51399E-08 2.05389E-10-4.32824E-10-2.88140E-07 5.12762E-09-3.35354E-09-3.48857E-06 9.53453E-08-5.53477E-07



 n o d a l   p r i n t   o u t   f o r   t i m e  s t e p     779                              ( at time 1.6483363E-01 )

 nodal point  x-disp     y-disp      z-disp      x-vel       y-vel       z-vel      x-accl      y-accl      z-accl      x-coor      y-coor      z-coor
  1100002 -1.06101E-07 1.05877E+00 2.09428E-08-2.65479E-05 1.90861E+01 2.88110E-06-5.12816E-03 2.03602E+02 5.29049E-04 2.73256E-05-6.84123E+00 7.94963E-07
  1200000  9.30707E-08-1.05885E+00-2.00562E-08 1.70492E-06-1.92147E+01-3.15551E-07 2.88003E-05-2.29999E+02-2.52150E-06 2.63456E-05 3.64115E+00 7.53964E-07



 n o d a l   p r i n t   o u t   f o r   t i m e  s t e p     779                              ( at time 1.6483363E-01 )

 nodal point  x-rot      y-rot       z-rot       x-rot vel   y-rot vel   z-rot vel   x-rot acc   y-rot acc   z-rot acc
  1100002  8.77975E-09 2.31847E-10 4.31904E-10-7.31013E-08 5.95068E-09-3.56200E-06-4.60039E-05 1.68941E-07-7.41894E-04
  1200000 -1.65879E-08 2.31592E-10-4.54103E-10-3.05627E-07 5.60955E-09-3.32440E-09-3.58960E-06 9.89224E-08 5.98106E-09



 n o d a l   p r i n t   o u t   f o r   t i m e  s t e p     803                              ( at time 1.6991427E-01 )

 nodal point  x-disp     y-disp      z-disp      x-vel       y-vel       z-vel      x-accl      y-accl      z-accl      x-coor      y-coor      z-coor
  1100002  2.05994E-06 1.14766E+00 1.30985E-06 2.74141E-03 1.48842E+01 2.94566E-04 5.44805E-01-8.27050E+02 5.74111E-02 2.94917E-05-6.75234E+00 2.08387E-06
  1200000  9.37855E-08-1.15972E+00 1.73979E-07 1.17564E-04-2.04604E+01 1.17550E-04 2.28040E-02-2.45191E+02 2.31990E-02 2.63463E-05 3.54028E+00 9.47999E-07



 n o d a l   p r i n t   o u t   f o r   t i m e  s t e p     803                              ( at time 1.6991427E-01 )

 nodal point  x-rot      y-rot       z-rot       x-rot vel   y-rot vel   z-rot vel   x-rot acc   y-rot acc   z-rot acc
  1100002 -5.65113E-09 2.90919E-10-1.25678E-07-7.39407E-06 2.03072E-08-4.34225E-05-1.44095E-03 2.82574E-06-7.84558E-03
  1200000 -2.46741E-08 2.61439E-10-1.73672E-09-6.05882E-06 5.96845E-09 1.22402E-06-1.13238E-03 7.06398E-08 2.41572E-04



 n o d a l   p r i n t   o u t   f o r   t i m e  s t e p     827                              ( at time 1.7497539E-01 )

 nodal point  x-disp     y-disp      z-disp      x-vel       y-vel       z-vel      x-accl      y-accl      z-accl      x-coor      y-coor      z-coor
  1100002  1.56286E-05 1.20533E+00 2.36580E-06 1.19762E-04 8.68099E+00 1.87834E-04-5.17997E-01-1.22565E+03-2.10886E-02 4.30603E-05-6.69467E+00 3.13982E-06
  1200000  5.36649E-06-1.26354E+00 6.45778E-06-7.14485E-04-1.92970E+01 4.12848E-03-1.64400E-01 2.29887E+02 7.92497E-01 3.16190E-05 3.43646E+00 7.23180E-06



 n o d a l   p r i n t   o u t   f o r   t i m e  s t e p     827                              ( at time 1.7497539E-01 )

 nodal point  x-rot      y-rot       z-rot       x-rot vel   y-rot vel   z-rot vel   x-rot acc   y-rot acc   z-rot acc
  1100002 -7.64633E-08 4.71653E-10-2.62032E-07-1.81170E-05 4.93075E-08 3.52496E-06-2.11868E-03 5.73001E-06 9.27610E-03
  1200000  6.39235E-07 3.17709E-10-5.40749E-08 4.87362E-04 3.43769E-08-8.57853E-05 9.74924E-02 5.61307E-06-1.71917E-02



 n o d a l   p r i n t   o u t   f o r   t i m e  s t e p     851                              ( at time 1.7993686E-01 )

 nodal point  x-disp     y-disp      z-disp      x-vel       y-vel       z-vel      x-accl      y-accl      z-accl      x-coor      y-coor      z-coor
  1100002  2.70357E-05 1.24795E+00 5.84813E-06 7.54043E-03 8.98010E+00 1.33960E-03 1.49566E+00 6.02850E+01 2.32142E-01 5.44674E-05-6.65205E+00 6.62215E-06
  1200000  2.45503E-06-1.34358E+00 3.11989E-05 9.71776E-04-1.30890E+01 3.63064E-03 3.39872E-01 1.25124E+03-1.00342E-01 2.87075E-05 3.35642E+00 3.19729E-05



 n o d a l   p r i n t   o u t   f o r   t i m e  s t e p     851                              ( at time 1.7993686E-01 )

 nodal point  x-rot      y-rot       z-rot       x-rot vel   y-rot vel   z-rot vel   x-rot acc   y-rot acc   z-rot acc
  1100002 -1.15776E-07 7.45966E-10 4.05008E-08 5.34929E-06 5.98833E-08 1.14718E-04 4.72971E-03 2.13157E-06 2.24113E-02
  1200000  5.25987E-06 5.03160E-10-5.09603E-07 1.27854E-03 1.06550E-07 3.05507E-05 1.59465E-01 1.45466E-05 2.34479E-02



 n o d a l   p r i n t   o u t   f o r   t i m e  s t e p     876                              ( at time 1.8499677E-01 )

 nodal point  x-disp     y-disp      z-disp      x-vel       y-vel       z-vel      x-accl      y-accl      z-accl      x-coor      y-coor      z-coor
  1100002  8.14088E-05 1.29051E+00 9.18693E-06 3.87115E-03 6.33969E+00 7.56092E-03-7.25167E-01-5.21827E+02 1.22953E+00 1.08841E-04-6.60950E+00 9.96095E-06
  1200000 -7.94419E-05-1.39778E+00 5.17997E-05-3.44905E-02-8.61091E+00 1.14409E-02-7.00848E+00 8.85009E+02 1.54356E+00-5.31894E-05 3.30222E+00 5.25737E-05



 n o d a l   p r i n t   o u t   f o r   t i m e  s t e p     876                              ( at time 1.8499677E-01 )

 nodal point  x-rot      y-rot       z-rot       x-rot vel   y-rot vel   z-rot vel   x-rot acc   y-rot acc   z-rot acc
  1100002 -4.54180E-07 1.02220E-09 1.34666E-06-2.24480E-04 5.31284E-08 6.49560E-04-4.54217E-02-1.33498E-06 1.05702E-01
  1200000  1.40642E-05 4.32313E-10 1.84915E-06 2.38839E-03-1.26232E-07 9.33001E-04 2.19341E-01-4.60051E-05 1.78353E-01



 n o d a l   p r i n t   o u t   f o r   t i m e  s t e p     900                              ( at time 1.8981878E-01 )

 nodal point  x-disp     y-disp      z-disp      x-vel       y-vel       z-vel      x-accl      y-accl      z-accl      x-coor      y-coor      z-coor
  1100002  1.58329E-04 1.30309E+00 7.20757E-05 3.70568E-02-1.01740E+00 1.37811E-02 6.88212E+00-1.52573E+03 1.28995E+00 1.85760E-04-6.59691E+00 7.28497E-05
  1200000 -1.43053E-04-1.42358E+00 1.64556E-04 2.31554E-02-2.15828E+00 3.25712E-02 1.19548E+01 1.33816E+03 4.38205E+00-1.16800E-04 3.27642E+00 1.65330E-04



 n o d a l   p r i n t   o u t   f o r   t i m e  s t e p     900                              ( at time 1.8981878E-01 )

 nodal point  x-rot      y-rot       z-rot       x-rot vel   y-rot vel   z-rot vel   x-rot acc   y-rot acc   z-rot acc
  1100002 -3.16114E-06 1.38164E-09 1.02594E-05-9.28821E-04 1.24777E-07 3.31019E-03-1.46068E-01 1.48588E-05 5.51769E-01
  1200000  2.87443E-05-8.93099E-10 1.12391E-05 3.61298E-03-5.45133E-07 3.13225E-03 2.53959E-01-8.68727E-05 4.56086E-01



 n o d a l   p r i n t   o u t   f o r   t i m e  s t e p     925                              ( at time 1.9484571E-01 )

 nodal point  x-disp     y-disp      z-disp      x-vel       y-vel       z-vel      x-accl      y-accl      z-accl      x-coor      y-coor      z-coor
  1100002  5.09758E-04 1.27782E+00 1.70022E-04 8.16959E-02-8.20519E+00 1.84263E-02 8.87999E+00-1.42986E+03 9.24068E-01 5.37190E-04-6.62218E+00 1.70796E-04
  1200000  1.42535E-05-1.41503E+00 3.15534E-04 2.59749E-03 5.41080E+00 1.39142E-02-4.08956E+00 1.50571E+03-3.71142E+00 4.05060E-05 3.28497E+00 3.16308E-04



 n o d a l   p r i n t   o u t   f o r   t i m e  s t e p     925                              ( at time 1.9484571E-01 )

 nodal point  x-rot      y-rot       z-rot       x-rot vel   y-rot vel   z-rot vel   x-rot acc   y-rot acc   z-rot acc
  1100002 -1.00615E-05 2.62950E-09 3.94253E-05-1.72926E-03 3.88785E-07 8.65381E-03-1.59231E-01 5.25186E-05 1.06300E+00
  1200000  4.93830E-05-3.30907E-09 3.50920E-05 4.36562E-03-8.09012E-07 6.52589E-03 1.49721E-01-5.24930E-05 6.75093E-01



 n o d a l   p r i n t   o u t   f o r   t i m e  s t e p     950                              ( at time 1.9986866E-01 )

 nodal point  x-disp     y-disp      z-disp      x-vel       y-vel       z-vel      x-accl      y-accl      z-accl      x-coor      y-coor      z-coor
  1100002  6.93690E-04 1.23424E+00 1.38414E-04 2.98866E-02-7.38830E+00-3.19760E-02-1.03145E+01 1.62632E+02-1.00344E+01 7.21122E-04-6.66576E+00 1.39188E-04
  1200000  5.29408E-05-1.37422E+00 2.77961E-04 5.52719E-02 8.90670E+00-1.25953E-02 1.04867E+01 6.95984E+02-5.27767E+00 7.91933E-05 3.32578E+00 2.78735E-04



 n o d a l   p r i n t   o u t   f o r   t i m e  s t e p     950                              ( at time 1.9986866E-01 )

 nodal point  x-rot      y-rot       z-rot       x-rot vel   y-rot vel   z-rot vel   x-rot acc   y-rot acc   z-rot acc
  1100002 -1.98102E-05 5.35819E-09 9.90112E-05-1.99717E-03 6.29266E-07 1.38916E-02-5.33362E-02 4.78764E-05 1.04278E+00
  1200000  6.91651E-05-1.07053E-08 7.80417E-05 3.17996E-03-2.15628E-06 1.00736E-02-2.36049E-01-2.68222E-04 7.06302E-01



 n o d a l   p r i n t   o u t   f o r   t i m e  s t e p     975                              ( at time 2.0489641E-01 )

 nodal point  x-disp     y-disp      z-disp      x-vel       y-vel       z-vel      x-accl      y-accl      z-accl      x-coor      y-coor      z-coor
  1100002  1.39013E-03 1.21010E+00-1.61390E-06 1.84111E-01-3.09066E+00-7.49659E-03 3.06747E+01 8.54783E+02 4.86887E+00 1.41756E-03-6.68990E+00-8.39881E-07
  1200000  3.00431E-04-1.33726E+00 3.07287E-04 1.64877E-02 5.26995E+00 5.73596E-03-7.71404E+00-7.23337E+02 3.64601E+00 3.26683E-04 3.36274E+00 3.08062E-04



 n o d a l   p r i n t   o u t   f o r   t i m e  s t e p     975                              ( at time 2.0489641E-01 )

 nodal point  x-rot      y-rot       z-rot       x-rot vel   y-rot vel   z-rot vel   x-rot acc   y-rot acc   z-rot acc
  1100002 -2.73772E-05 8.39007E-09 1.63092E-04-7.41190E-04 5.18450E-07 1.05729E-02 2.49809E-01-2.20407E-05-6.60077E-01
  1200000  7.97577E-05-2.40762E-08 1.23995E-04 1.04694E-03-2.70371E-06 7.56416E-03-4.24249E-01-1.08881E-04-4.99121E-01



 n o d a l   p r i n t   o u t   f o r   t i m e  s t e p    1000                              ( at time 2.0992287E-01 )

 nodal point  x-disp     y-disp      z-disp      x-vel       y-vel       z-vel      x-accl      y-accl      z-accl      x-coor      y-coor      z-coor
  1100002  1.89333E-03 1.19306E+00-7.42699E-05 7.14997E-02-4.46007E+00-3.52291E-02-2.24037E+01-2.72439E+02-5.51729E+00 1.92076E-03-6.70694E+00-7.34959E-05
  1200000  2.50071E-04-1.31690E+00 2.39463E-04-2.01201E-02 4.25714E+00-1.32547E-02-7.28301E+00-2.01494E+02-3.77813E+00 2.76323E-04 3.38310E+00 2.40237E-04



 n o d a l   p r i n t   o u t   f o r   t i m e  s t e p    1000                              ( at time 2.0992287E-01 )

 nodal point  x-rot      y-rot       z-rot       x-rot vel   y-rot vel   z-rot vel   x-rot acc   y-rot acc   z-rot acc
  1100002 -2.63299E-05 9.31448E-09 1.99036E-04 1.00084E-03-2.54239E-07 3.63201E-03 3.46572E-01-1.53724E-04-1.38087E+00
  1200000  7.70781E-05-3.71499E-08 1.48726E-04-2.17554E-03-2.19497E-06 2.29398E-03-6.41103E-01 1.01211E-04-1.04849E+00



 n o d a l   p r i n t   o u t   f o r   t i m e  s t e p    1025                              ( at time 2.1494704E-01 )

 nodal point  x-disp     y-disp      z-disp      x-vel       y-vel       z-vel      x-accl      y-accl      z-accl      x-coor      y-coor      z-coor
  1100002  2.61633E-03 1.16936E+00-1.76323E-04 1.69239E-01-3.75010E+00 8.48307E-03 1.94538E+01 1.41310E+02 8.70038E+00 2.64376E-03-6.73064E+00-1.75549E-04
  1200000  1.66443E-04-1.29193E+00 1.60707E-04 3.43109E-02 5.23572E+00-1.63232E-02 1.08338E+01 1.94775E+02-6.10754E-01 1.92695E-04 3.40807E+00 1.61481E-04



 n o d a l   p r i n t   o u t   f o r   t i m e  s t e p    1025                              ( at time 2.1494704E-01 )

 nodal point  x-rot      y-rot       z-rot       x-rot vel   y-rot vel   z-rot vel   x-rot acc   y-rot acc   z-rot acc
  1100002 -1.73699E-05 4.83267E-09 2.01218E-04 2.40177E-03-1.53390E-06-1.28895E-03 2.78838E-01-2.54702E-04-9.79458E-01
  1200000  5.78326E-05-4.42217E-08 1.47973E-04-5.10964E-03-6.94958E-07-1.25877E-03-5.83998E-01 2.98560E-04-7.07134E-01



 n o d a l   p r i n t   o u t   f o r   t i m e  s t e p    1050                              ( at time 2.1997125E-01 )

 nodal point  x-disp     y-disp      z-disp      x-vel       y-vel       z-vel      x-accl      y-accl      z-accl      x-coor      y-coor      z-coor
  1100002  2.84550E-03 1.16385E+00-1.11353E-04-4.14858E-02 1.30780E+00-7.37944E-03-4.19418E+01 1.00671E+03-3.15721E+00 2.87293E-03-6.73615E+00-1.10578E-04
  1200000  5.96629E-04-1.27352E+00-5.20443E-07 8.00951E-02 1.25352E+00-3.79444E-02 9.11271E+00-7.92601E+02-4.30339E+00 6.22882E-04 3.42648E+00 2.53577E-07



 n o d a l   p r i n t   o u t   f o r   t i m e  s t e p    1050                              ( at time 2.1997125E-01 )

 nodal point  x-rot      y-rot       z-rot       x-rot vel   y-rot vel   z-rot vel   x-rot acc   y-rot acc   z-rot acc
  1100002 -5.08756E-06-7.42093E-09 1.98247E-04 2.07732E-03-3.27887E-06 4.75013E-04-6.45768E-02-3.47312E-04 3.51093E-01
  1200000  2.80467E-05-4.22365E-08 1.44524E-04-6.40602E-03 1.43898E-06 1.34623E-04-2.58027E-01 4.24730E-04 2.77336E-01



 n o d a l   p r i n t   o u t   f o r   t i m e  s t e p    1074                              ( at time 2.2479939E-01 )

 nodal point  x-disp     y-disp      z-disp      x-vel       y-vel       z-vel      x-accl      y-accl      z-accl      x-coor      y-coor      z-coor
  1100002  2.85227E-03 1.17238E+00-1.53121E-04 3.61398E-02 1.15224E+00 1.20468E-02 1.60777E+01-3.22202E+01 4.02354E+00 2.87970E-03-6.72762E+00-1.52347E-04
  1200000  1.01697E-03-1.27551E+00-1.72151E-04 1.23340E-01-1.10335E+00-4.26400E-02 8.95679E+00-4.88154E+02-9.72558E-01 1.04322E-03 3.42449E+00-1.71377E-04



 n o d a l   p r i n t   o u t   f o r   t i m e  s t e p    1074                              ( at time 2.2479939E-01 )

 nodal point  x-rot      y-rot       z-rot       x-rot vel   y-rot vel   z-rot vel   x-rot acc   y-rot acc   z-rot acc
  1100002  1.25782E-06-2.65126E-08 2.07413E-04 5.65656E-04-4.44564E-06 3.39948E-03-3.13095E-01-2.41659E-04 6.05713E-01
  1200000 -7.34774E-07-3.16708E-08 1.48665E-04-5.09063E-03 3.19148E-06 1.48770E-03 2.72442E-01 3.62978E-04 2.80247E-01



 n o d a l   p r i n t   o u t   f o r   t i m e  s t e p    1099                              ( at time 2.2982731E-01 )

 nodal point  x-disp     y-disp      z-disp      x-vel       y-vel       z-vel      x-accl      y-accl      z-accl      x-coor      y-coor      z-coor
  1100002  2.95246E-03 1.17415E+00-8.51739E-05 8.31886E-03 3.88824E-01-6.55036E-03-5.53329E+00-1.51835E+02-3.69878E+00 2.97989E-03-6.72585E+00-8.43999E-05
  1200000  1.77418E-03-1.27789E+00-3.01272E-04 9.14235E-02 4.31483E-01-1.60479E-02-6.34780E+00 3.05262E+02 5.28889E+00 1.80043E-03 3.42211E+00-3.00498E-04



 n o d a l   p r i n t   o u t   f o r   t i m e  s t e p    1099                              ( at time 2.2982731E-01 )

 nodal point  x-rot      y-rot       z-rot       x-rot vel   y-rot vel   z-rot vel   x-rot acc   y-rot acc   z-rot acc
  1100002 -1.37217E-06-4.98769E-08 2.31540E-04-1.52678E-03-4.69677E-06 5.41223E-03-4.16163E-01-4.99474E-05 4.00316E-01
  1200000 -1.90341E-05-1.20798E-08 1.58657E-04-2.19818E-03 4.39132E-06 1.70145E-03 5.75278E-01 2.38635E-04 4.25134E-02



 n o d a l   p r i n t   o u t   f o r   t i m e  s t e p    1124                              ( at time 2.3485355E-01 )

 nodal point  x-disp     y-disp      z-disp      x-vel       y-vel       z-vel      x-accl      y-accl      z-accl      x-coor      y-coor      z-coor
  1100002  3.33452E-03 1.18726E+00-2.01588E-04 1.40816E-01 5.02541E+00-1.56805E-02 2.63611E+01 9.22474E+02-1.81650E+00 3.36195E-03-6.71274E+00-2.00814E-04
  1200000  1.71177E-03-1.28109E+00-3.96217E-04-2.00833E-02-2.59145E+00-2.03392E-02-2.21849E+01-6.01430E+02-8.53784E-01 1.73803E-03 3.41891E+00-3.95443E-04



 n o d a l   p r i n t   o u t   f o r   t i m e  s t e p    1124                              ( at time 2.3485355E-01 )

 nodal point  x-rot      y-rot       z-rot       x-rot vel   y-rot vel   z-rot vel   x-rot acc   y-rot acc   z-rot acc
  1100002 -1.10340E-05-7.08423E-08 2.54545E-04-1.84308E-03-3.44430E-06 3.44836E-03-6.29293E-02 2.49187E-04-3.90724E-01
  1200000 -2.18307E-05 1.29277E-08 1.63230E-04 8.56552E-04 5.07909E-06 7.47169E-04 6.07757E-01 1.36836E-04-1.89860E-01



 n o d a l   p r i n t   o u t   f o r   t i m e  s t e p    1149                              ( at time 2.3987940E-01 )

 nodal point  x-disp     y-disp      z-disp      x-vel       y-vel       z-vel      x-accl      y-accl      z-accl      x-coor      y-coor      z-coor
  1100002  4.03983E-03 1.21595E+00-2.47350E-04 1.27396E-01 5.09939E+00-1.98451E-02-2.67033E+00 1.47199E+01-8.28633E-01 4.06726E-03-6.68405E+00-2.46576E-04
  1200000  1.80030E-03-1.30537E+00-4.36314E-04 3.26707E-03-6.51975E+00 1.18908E-02 4.64606E+00-7.81619E+02 6.41286E+00 1.82655E-03 3.39463E+00-4.35540E-04



 n o d a l   p r i n t   o u t   f o r   t i m e  s t e p    1149                              ( at time 2.3987940E-01 )

 nodal point  x-rot      y-rot       z-rot       x-rot vel   y-rot vel   z-rot vel   x-rot acc   y-rot acc   z-rot acc
  1100002 -1.68937E-05-8.26970E-08 2.57700E-04-4.50102E-04-1.30300E-06-3.02113E-03 2.77162E-01 4.26058E-04-1.28724E+00
  1200000 -1.40379E-05 3.60949E-08 1.73035E-04 1.64340E-03 4.13094E-06 3.20818E-03 1.56560E-01-1.88655E-04 4.89671E-01



 n o d a l   p r i n t   o u t   f o r   t i m e  s t e p    1174                              ( at time 2.4490469E-01 )

 nodal point  x-disp     y-disp      z-disp      x-vel       y-vel       z-vel      x-accl      y-accl      z-accl      x-coor      y-coor      z-coor
  1100002  4.45799E-03 1.23267E+00-3.81572E-04 3.32048E-02 2.18933E+00-1.90810E-02-1.87433E+01-5.79081E+02 1.52052E-01 4.48542E-03-6.66733E+00-3.80798E-04
  1200000  1.56185E-03-1.33601E+00-4.60634E-04-1.01152E-02-5.19392E+00-2.08212E-02-2.66299E+00 2.63831E+02-6.50947E+00 1.58810E-03 3.36399E+00-4.59860E-04



 n o d a l   p r i n t   o u t   f o r   t i m e  s t e p    1174                              ( at time 2.4490469E-01 )

 nodal point  x-rot      y-rot       z-rot       x-rot vel   y-rot vel   z-rot vel   x-rot acc   y-rot acc   z-rot acc
  1100002 -1.46898E-05-8.35717E-08 2.17500E-04 1.12502E-03 8.25058E-07-1.22319E-02 3.13439E-01 4.23468E-04-1.83289E+00
  1200000 -1.02682E-05 5.44500E-08 1.99284E-04-3.93356E-04 3.28191E-06 7.35550E-03-4.05300E-01-1.68952E-04 8.25290E-01



 n o d a l   p r i n t   o u t   f o r   t i m e  s t e p    1199                              ( at time 2.4993061E-01 )

 nodal point  x-disp     y-disp      z-disp      x-vel       y-vel       z-vel      x-accl      y-accl      z-accl      x-coor      y-coor      z-coor
  1100002  4.28298E-03 1.24762E+00-4.07320E-04-6.39398E-02 4.11093E+00-1.97334E-03-1.93287E+01 3.82337E+02 3.40389E+00 4.31041E-03-6.65238E+00-4.06546E-04
  1200000  2.06559E-03-1.36296E+00-5.37858E-04 1.21245E-01-6.20220E+00-4.10099E-03 2.61365E+01-2.00616E+02 3.32679E+00 2.09184E-03 3.33704E+00-5.37084E-04



 n o d a l   p r i n t   o u t   f o r   t i m e  s t e p    1199                              ( at time 2.4993061E-01 )

 nodal point  x-rot      y-rot       z-rot       x-rot vel   y-rot vel   z-rot vel   x-rot acc   y-rot acc   z-rot acc
  1100002 -8.55091E-06-7.47448E-08 1.37696E-04 1.09685E-03 2.73440E-06-1.87803E-02-5.60649E-03 3.79899E-04-1.30291E+00
  1200000 -2.10302E-05 6.81579E-08 2.44780E-04-3.84232E-03 2.31299E-06 9.46803E-03-6.86235E-01-1.92786E-04 4.20325E-01



 n o d a l   p r i n t   o u t   f o r   t i m e  s t e p    1224                              ( at time 2.5495280E-01 )

 nodal point  x-disp     y-disp      z-disp      x-vel       y-vel       z-vel      x-accl      y-accl      z-accl      x-coor      y-coor      z-coor
  1100002  4.15520E-03 1.27156E+00-4.12800E-04-4.59224E-03 4.66095E+00 1.37877E-03 1.18171E+01 1.09518E+02 6.67460E-01 4.18263E-03-6.62844E+00-4.12026E-04
  1200000  2.45054E-03-1.40420E+00-6.01485E-04 6.09772E-02-9.09288E+00-3.37329E-02-1.20002E+01-5.75582E+02-5.90020E+00 2.47679E-03 3.29580E+00-6.00711E-04



 n o d a l   p r i n t   o u t   f o r   t i m e  s t e p    1224                              ( at time 2.5495280E-01 )

 nodal point  x-rot      y-rot       z-rot       x-rot vel   y-rot vel   z-rot vel   x-rot acc   y-rot acc   z-rot acc
  1100002 -3.08570E-06-5.47283E-08 4.40282E-05 1.27157E-03 5.47233E-06-1.59420E-02 3.47906E-02 5.45167E-04 5.65142E-01
  1200000 -4.83590E-05 7.74833E-08 2.84542E-04-6.65469E-03 1.61451E-06 6.73477E-03-5.59988E-01-1.39078E-04-5.44236E-01



 n o d a l   p r i n t   o u t   f o r   t i m e  s t e p    1249                              ( at time 2.5997419E-01 )

 nodal point  x-disp     y-disp      z-disp      x-vel       y-vel       z-vel      x-accl      y-accl      z-accl      x-coor      y-coor      z-coor
  1100002  4.46053E-03 1.28767E+00-3.74745E-04 1.30479E-01 1.66984E+00 1.80686E-02 2.68992E+01-5.95674E+02 3.32375E+00 4.48796E-03-6.61233E+00-3.73971E-04
  1200000  2.69386E-03-1.43386E+00-7.11574E-04-2.43036E-02-2.65024E+00-1.98524E-02-1.69835E+01 1.28304E+03 2.76428E+00 2.72011E-03 3.26614E+00-7.10800E-04



 n o d a l   p r i n t   o u t   f o r   t i m e  s t e p    1249                              ( at time 2.5997419E-01 )

 nodal point  x-rot      y-rot       z-rot       x-rot vel   y-rot vel   z-rot vel   x-rot acc   y-rot acc   z-rot acc
  1100002  5.32303E-06-1.93293E-08 4.12791E-06 2.16775E-03 8.60465E-06 9.49192E-04 1.78472E-01 6.23794E-04 3.36385E+00
  1200000 -8.50501E-05 8.57644E-08 3.25927E-04-7.54826E-03 1.28196E-06 1.11263E-02-1.77953E-01-6.62260E-05 8.74559E-01



 n o d a l   p r i n t   o u t   f o r   t i m e  s t e p    1274                              ( at time 2.6499771E-01 )

 nodal point  x-disp     y-disp      z-disp      x-vel       y-vel       z-vel      x-accl      y-accl      z-accl      x-coor      y-coor      z-coor
  1100002  5.34319E-03 1.28743E+00-3.17889E-04 1.66177E-01-1.50883E+00 8.44997E-03 7.10616E+00-6.32758E+02-1.91472E+00 5.37063E-03-6.61257E+00-3.17115E-04
  1200000  2.22866E-03-1.42999E+00-7.75169E-04-9.84860E-02 3.04902E+00-1.75076E-02-1.47670E+01 1.13452E+03 4.66767E-01 2.25492E-03 3.27001E+00-7.74395E-04



 n o d a l   p r i n t   o u t   f o r   t i m e  s t e p    1274                              ( at time 2.6499771E-01 )

 nodal point  x-rot      y-rot       z-rot       x-rot vel   y-rot vel   z-rot vel   x-rot acc   y-rot acc   z-rot acc
  1100002  1.96519E-05 3.07395E-08 6.60709E-05 3.54717E-03 1.11068E-05 2.28847E-02 2.74593E-01 4.98097E-04 4.36657E+00
  1200000 -1.23140E-04 9.23752E-08 4.16646E-04-7.54860E-03 1.74346E-06 2.62593E-02-6.72841E-05 9.18669E-05 3.01244E+00



 n o d a l   p r i n t   o u t   f o r   t i m e  s t e p    1298                              ( at time 2.6981858E-01 )

 nodal point  x-disp     y-disp      z-disp      x-vel       y-vel       z-vel      x-accl      y-accl      z-accl      x-coor      y-coor      z-coor
  1100002  5.83526E-03 1.27450E+00-3.23221E-04 7.62685E-02-3.65957E+00-2.48243E-03-1.86498E+01-4.46132E+02-2.26772E+00 5.86270E-03-6.62550E+00-3.22447E-04
  1200000  2.19606E-03-1.41198E+00-8.41681E-04 4.81417E-02 4.57360E+00 7.42110E-03 3.04152E+01 3.16245E+02 5.17100E+00 2.22231E-03 3.28802E+00-8.40907E-04



 n o d a l   p r i n t   o u t   f o r   t i m e  s t e p    1298                              ( at time 2.6981858E-01 )

 nodal point  x-rot      y-rot       z-rot       x-rot vel   y-rot vel   z-rot vel   x-rot acc   y-rot acc   z-rot acc
  1100002  3.96632E-05 8.81745E-08 2.14594E-04 4.62709E-03 1.24252E-05 3.51293E-02 2.24009E-01 2.73475E-04 2.53992E+00
  1200000 -1.59021E-04 1.02342E-07 5.80097E-04-7.27740E-03 2.45295E-06 3.78905E-02 5.62548E-02 1.47171E-04 2.41268E+00



 n o d a l   p r i n t   o u t   f o r   t i m e  s t e p    1323                              ( at time 2.7484087E-01 )

 nodal point  x-disp     y-disp      z-disp      x-vel       y-vel       z-vel      x-accl      y-accl      z-accl      x-coor      y-coor      z-coor
  1100002  6.24589E-03 1.25370E+00-2.72681E-04 9.52789E-02-4.20679E+00 5.53530E-03 3.78521E+00-1.08957E+02 1.59643E+00 6.27332E-03-6.64630E+00-2.71907E-04
  1200000  2.09776E-03-1.38774E+00-8.38386E-04-7.19241E-02 4.89828E+00-2.74962E-03-2.39066E+01 6.46475E+01-2.02512E+00 2.12401E-03 3.31226E+00-8.37612E-04



 n o d a l   p r i n t   o u t   f o r   t i m e  s t e p    1323                              ( at time 2.7484087E-01 )

 nodal point  x-rot      y-rot       z-rot       x-rot vel   y-rot vel   z-rot vel   x-rot acc   y-rot acc   z-rot acc
  1100002  6.45938E-05 1.50415E-07 3.73261E-04 5.07656E-03 1.21453E-05 2.47526E-02 8.94947E-02-5.57362E-05-2.06613E+00
  1200000 -1.93265E-04 1.19110E-07 7.38704E-04-6.34343E-03 3.58267E-06 2.08128E-02 1.85965E-01 2.24941E-04-3.40039E+00



 n o d a l   p r i n t   o u t   f o r   t i m e  s t e p    1348                              ( at time 2.7986177E-01 )

 nodal point  x-disp     y-disp      z-disp      x-vel       y-vel       z-vel      x-accl      y-accl      z-accl      x-coor      y-coor      z-coor
  1100002  6.90089E-03 1.23628E+00-2.52867E-04 1.77240E-01-2.41207E+00 2.99379E-03 1.63240E+01 3.57449E+02-5.06186E-01 6.92833E-03-6.66372E+00-2.52093E-04
  1200000  1.56858E-03-1.36460E+00-9.32084E-04-1.03780E-01 3.47310E+00-2.04586E-02-6.34474E+00-2.83848E+02-3.52705E+00 1.59483E-03 3.33540E+00-9.31310E-04



 n o d a l   p r i n t   o u t   f o r   t i m e  s t e p    1348                              ( at time 2.7986177E-01 )

 nodal point  x-rot      y-rot       z-rot       x-rot vel   y-rot vel   z-rot vel   x-rot acc   y-rot acc   z-rot acc
  1100002  8.87395E-05 2.09099E-07 4.37125E-04 4.39538E-03 1.12734E-05 1.33523E-03-1.35669E-01-1.73651E-04-4.66398E+00
  1200000 -2.22083E-04 1.38280E-07 7.52044E-04-5.26746E-03 3.72324E-06-1.46559E-02 2.14299E-01 2.79963E-05-7.06419E+00



 n o d a l   p r i n t   o u t   f o r   t i m e  s t e p    1373                              ( at time 2.8489193E-01 )

 nodal point  x-disp     y-disp      z-disp      x-vel       y-vel       z-vel      x-accl      y-accl      z-accl      x-coor      y-coor      z-coor
  1100002  7.80053E-03 1.23014E+00-1.65260E-04 1.15527E-01-3.13658E-01 2.08933E-02-1.22687E+01 4.17166E+02 3.55844E+00 7.82796E-03-6.66987E+00-1.64486E-04
  1200000  1.30451E-03-1.35266E+00-9.36448E-04 1.53320E-02 1.63239E+00-4.97227E-04 2.36796E+01-3.65936E+02 3.96833E+00 1.33076E-03 3.34734E+00-9.35674E-04



 n o d a l   p r i n t   o u t   f o r   t i m e  s t e p    1373                              ( at time 2.8489193E-01 )

 nodal point  x-rot      y-rot       z-rot       x-rot vel   y-rot vel   z-rot vel   x-rot acc   y-rot acc   z-rot acc
  1100002  1.08070E-04 2.65175E-07 4.02728E-04 3.37124E-03 1.12290E-05-1.07834E-02-2.03600E-01-8.83855E-06-2.40920E+00
  1200000 -2.47686E-04 1.54694E-07 6.06979E-04-5.08019E-03 2.90242E-06-3.77038E-02 3.72283E-02-1.63179E-04-4.58195E+00



 n o d a l   p r i n t   o u t   f o r   t i m e  s t e p    1398                              ( at time 2.8992231E-01 )

 nodal point  x-disp     y-disp      z-disp      x-vel       y-vel       z-vel      x-accl      y-accl      z-accl      x-coor      y-coor      z-coor
  1100002  7.77840E-03 1.23129E+00-1.46974E-04-9.31019E-02 6.35427E-01-3.76687E-03-4.14737E+01 1.88671E+02-4.90225E+00 7.80583E-03-6.66871E+00-1.46200E-04
  1200000  2.08947E-03-1.34743E+00-9.43707E-04 2.61780E-01 1.04261E+00-1.31351E-02 4.89919E+01-1.17243E+02-2.51232E+00 2.11572E-03 3.35257E+00-9.42933E-04



 n o d a l   p r i n t   o u t   f o r   t i m e  s t e p    1398                              ( at time 2.8992231E-01 )

 nodal point  x-rot      y-rot       z-rot       x-rot vel   y-rot vel   z-rot vel   x-rot acc   y-rot acc   z-rot acc
  1100002  1.23124E-04 3.23431E-07 3.66104E-04 2.77719E-03 1.18499E-05-1.47589E-03-1.18093E-01 1.23433E-04 1.85027E+00
  1200000 -2.74616E-04 1.69369E-07 4.20451E-04-5.63279E-03 3.23630E-06-3.27124E-02-1.09852E-01 6.63723E-05 9.92252E-01



 n o d a l   p r i n t   o u t   f o r   t i m e  s t e p    1423                              ( at time 2.9494674E-01 )

 nodal point  x-disp     y-disp      z-disp      x-vel       y-vel       z-vel      x-accl      y-accl      z-accl      x-coor      y-coor      z-coor
  1100002  7.16741E-03 1.23889E+00-1.40642E-04-1.41394E-01 2.50250E+00 1.81957E-02-9.61144E+00 3.71600E+02 4.37116E+00 7.19484E-03-6.66111E+00-1.39868E-04
  1200000  3.78828E-03-1.34609E+00-9.31756E-04 3.53649E-01-8.81950E-01 1.26325E-02 1.82846E+01-3.83040E+02 5.12847E+00 3.81453E-03 3.35391E+00-9.30982E-04



 n o d a l   p r i n t   o u t   f o r   t i m e  s t e p    1423                              ( at time 2.9494674E-01 )

 nodal point  x-rot      y-rot       z-rot       x-rot vel   y-rot vel   z-rot vel   x-rot acc   y-rot acc   z-rot acc
  1100002  1.36788E-04 3.82019E-07 4.01853E-04 2.72526E-03 1.11047E-05 1.46348E-02-1.03344E-02-1.48312E-04 3.20647E+00
  1200000 -3.04534E-04 1.90681E-07 3.03599E-04-6.10826E-03 5.43655E-06-1.41206E-02-9.46328E-02 4.37911E-04 3.70028E+00



 n o d a l   p r i n t   o u t   f o r   t i m e  s t e p    1448                              ( at time 2.9997071E-01 )

 nodal point  x-disp     y-disp      z-disp      x-vel       y-vel       z-vel      x-accl      y-accl      z-accl      x-coor      y-coor      z-coor
  1100002  6.80681E-03 1.25611E+00-7.67617E-05 6.22136E-02 3.94419E+00 6.17008E-03 4.05272E+01 2.86962E+02-2.39365E+00 6.83424E-03-6.64390E+00-7.59877E-05
  1200000  5.28919E-03-1.35674E+00-9.32349E-04 2.15037E-01-3.48681E+00-5.03844E-03-2.75901E+01-5.18487E+02-3.51732E+00 5.31544E-03 3.34326E+00-9.31575E-04



 n o d a l   p r i n t   o u t   f o r   t i m e  s t e p    1448                              ( at time 2.9997071E-01 )

 nodal point  x-rot      y-rot       z-rot       x-rot vel   y-rot vel   z-rot vel   x-rot acc   y-rot acc   z-rot acc
  1100002  1.49809E-04 4.29635E-07 4.98343E-04 2.27276E-03 7.60248E-06 2.08664E-02-9.00693E-02-6.97101E-04 1.24038E+00
  1200000 -3.34207E-04 2.27500E-07 2.70303E-04-5.56340E-03 9.05074E-06-1.94548E-03 1.08453E-01 7.19389E-04 2.42341E+00



 n o d a l   p r i n t   o u t   f o r   t i m e  s t e p    1473                              ( at time 3.0499623E-01 )

 nodal point  x-disp     y-disp      z-disp      x-vel       y-vel       z-vel      x-accl      y-accl      z-accl      x-coor      y-coor      z-coor
  1100002  7.94740E-03 1.27322E+00-1.08483E-05 3.36892E-01 2.67695E+00 1.80813E-02 5.46567E+01-2.52161E+02 2.37014E+00 7.97484E-03-6.62678E+00-1.00742E-05
  1200000  5.39015E-03-1.37597E+00-9.81236E-04-1.42971E-01-3.72808E+00 4.64829E-03-7.12380E+01-4.80078E+01 1.92751E+00 5.41640E-03 3.32403E+00-9.80462E-04



 n o d a l   p r i n t   o u t   f o r   t i m e  s t e p    1473                              ( at time 3.0499623E-01 )

 nodal point  x-rot      y-rot       z-rot       x-rot vel   y-rot vel   z-rot vel   x-rot acc   y-rot acc   z-rot acc
  1100002  1.57961E-04 4.56443E-07 5.86829E-04 9.01610E-04 3.54944E-06 1.34933E-02-2.72836E-01-8.06491E-04-1.46714E+00
  1200000 -3.58717E-04 2.81607E-07 2.67275E-04-4.08324E-03 1.23364E-05-1.99933E-04 2.94529E-01 6.53786E-04 3.47337E-01



 n o d a l   p r i n t   o u t   f o r   t i m e  s t e p    1497                              ( at time 3.0981918E-01 )

 nodal point  x-disp     y-disp      z-disp      x-vel       y-vel       z-vel      x-accl      y-accl      z-accl      x-coor      y-coor      z-coor
  1100002  9.38969E-03 1.28367E+00 1.04551E-04 2.20058E-01 1.92288E+00 1.18960E-02-2.42246E+01-1.56350E+02-1.28247E+00 9.41712E-03-6.61634E+00 1.05325E-04
  1200000  4.20670E-03-1.39481E+00-9.84077E-04-2.44196E-01-3.73952E+00-1.32125E-02-2.09883E+01-2.37218E+00-3.70329E+00 4.23295E-03 3.30519E+00-9.83303E-04



 n o d a l   p r i n t   o u t   f o r   t i m e  s t e p    1497                              ( at time 3.0981918E-01 )

 nodal point  x-rot      y-rot       z-rot       x-rot vel   y-rot vel   z-rot vel   x-rot acc   y-rot acc   z-rot acc
  1100002  1.58751E-04 4.71925E-07 6.33463E-04-4.97580E-04 3.57880E-06 6.98805E-03-2.90111E-01 6.08744E-06-1.34880E+00
  1200000 -3.72608E-04 3.45974E-07 2.69565E-04-1.71044E-03 1.39756E-05 1.36585E-03 4.91981E-01 3.39894E-04 3.24652E-01



 n o d a l   p r i n t   o u t   f o r   t i m e  s t e p    1522                              ( at time 3.1484048E-01 )

 nodal point  x-disp     y-disp      z-disp      x-vel       y-vel       z-vel      x-accl      y-accl      z-accl      x-coor      y-coor      z-coor
  1100002  9.70759E-03 1.29342E+00 1.24125E-04-1.10898E-01 1.64989E+00 2.20799E-03-6.59104E+01-5.43663E+01-1.92938E+00 9.73502E-03-6.60658E+00 1.24899E-04
  1200000  4.06523E-03-1.41124E+00-1.02084E-03 1.73256E-01-2.46046E+00-6.77521E-03 8.31363E+01 2.54727E+02 1.28199E+00 4.09148E-03 3.28876E+00-1.02007E-03



 n o d a l   p r i n t   o u t   f o r   t i m e  s t e p    1522                              ( at time 3.1484048E-01 )

 nodal point  x-rot      y-rot       z-rot       x-rot vel   y-rot vel   z-rot vel   x-rot acc   y-rot acc   z-rot acc
  1100002  1.52709E-04 5.00106E-07 6.55053E-04-1.84616E-03 7.82088E-06 5.91964E-04-2.68571E-01 8.44816E-04-1.27379E+00
  1200000 -3.74566E-04 4.14861E-07 2.73743E-04 8.12541E-04 1.26582E-05-2.04869E-03 5.02455E-01-2.62378E-04-6.80009E-01



 n o d a l   p r i n t   o u t   f o r   t i m e  s t e p    1547                              ( at time 3.1986317E-01 )

 nodal point  x-disp     y-disp      z-disp      x-vel       y-vel       z-vel      x-accl      y-accl      z-accl      x-coor      y-coor      z-coor
  1100002  8.55028E-03 1.29480E+00 1.15449E-04-2.90863E-01-1.26628E+00-1.14795E-03-3.58303E+01-5.80599E+02-6.68156E-01 8.57771E-03-6.60520E+00 1.16223E-04
  1200000  5.51271E-03-1.41306E+00-9.93480E-04 2.98629E-01 1.28270E+00 7.03375E-03 2.49613E+01 7.45250E+02 2.74932E+00 5.53896E-03 3.28694E+00-9.92706E-04



 n o d a l   p r i n t   o u t   f o r   t i m e  s t e p    1547                              ( at time 3.1986317E-01 )

 nodal point  x-rot      y-rot       z-rot       x-rot vel   y-rot vel   z-rot vel   x-rot acc   y-rot acc   z-rot acc
  1100002  1.39903E-04 5.51381E-07 6.09674E-04-3.16493E-03 1.20669E-05-2.08953E-02-2.62562E-01 8.45365E-04-4.27803E+00
  1200000 -3.64290E-04 4.65422E-07 2.13398E-04 3.18712E-03 7.00108E-06-2.41803E-02 4.72771E-01-1.12631E-03-4.40632E+00



 n o d a l   p r i n t   o u t   f o r   t i m e  s t e p    1572                              ( at time 3.2488482E-01 )

 nodal point  x-disp     y-disp      z-disp      x-vel       y-vel       z-vel      x-accl      y-accl      z-accl      x-coor      y-coor      z-coor
  1100002  7.39103E-03 1.28160E+00 7.46008E-05-1.51493E-01-3.25082E+00-3.70492E-03 2.77538E+01-3.95196E+02-5.09191E-01 7.41847E-03-6.61840E+00 7.53748E-05
  1200000  6.60213E-03-1.40118E+00-9.74004E-04 1.26796E-01 2.88863E+00 8.36733E-04-3.42185E+01 3.19800E+02-1.23406E+00 6.62838E-03 3.29882E+00-9.73230E-04



 n o d a l   p r i n t   o u t   f o r   t i m e  s t e p    1572                              ( at time 3.2488482E-01 )

 nodal point  x-rot      y-rot       z-rot       x-rot vel   y-rot vel   z-rot vel   x-rot acc   y-rot acc   z-rot acc
  1100002  1.20764E-04 6.18344E-07 4.25563E-04-4.38914E-03 1.40899E-05-4.99920E-02-2.43787E-01 4.02852E-04-5.79426E+00
  1200000 -3.42564E-04 4.83880E-07 1.60993E-05 5.33763E-03 1.08382E-06-5.11353E-02 4.28247E-01-1.17835E-03-5.36777E+00



 n o d a l   p r i n t   o u t   f o r   t i m e  s t e p    1597                              ( at time 3.2991535E-01 )

 nodal point  x-disp     y-disp      z-disp      x-vel       y-vel       z-vel      x-accl      y-accl      z-accl      x-coor      y-coor      z-coor
  1100002  7.02087E-03 1.26788E+00 9.74364E-05-4.56676E-02-2.09604E+00 7.46414E-03 2.10366E+01 2.29553E+02 2.22025E+00 7.04831E-03-6.63213E+00 9.82104E-05
  1200000  6.88553E-03-1.38821E+00-9.82368E-04 8.11131E-02 2.61100E+00 1.86497E-03-9.08118E+00-5.51879E+01 2.04399E-01 6.91178E-03 3.31179E+00-9.81594E-04



 n o d a l   p r i n t   o u t   f o r   t i m e  s t e p    1597                              ( at time 3.2991535E-01 )

 nodal point  x-rot      y-rot       z-rot       x-rot vel   y-rot vel   z-rot vel   x-rot acc   y-rot acc   z-rot acc
  1100002  9.51683E-05 6.90942E-07 1.45823E-04-5.78879E-03 1.46916E-05-5.49069E-02-2.78233E-01 1.19625E-04-9.77014E-01
  1200000 -3.11412E-04 4.85726E-07-2.52318E-04 6.82394E-03 8.88856E-07-4.88584E-02 2.95459E-01-3.87572E-05 4.52627E-01



 n o d a l   p r i n t   o u t   f o r   t i m e  s t e p    1622                              ( at time 3.3494302E-01 )

 nodal point  x-disp     y-disp      z-disp      x-vel       y-vel       z-vel      x-accl      y-accl      z-accl      x-coor      y-coor      z-coor
  1100002  6.65895E-03 1.26016E+00 1.19553E-04-1.05107E-01-1.17730E+00-5.38102E-04-1.18224E+01 1.82737E+02-1.59164E+00 6.68639E-03-6.63984E+00 1.20327E-04
  1200000  7.89378E-03-1.37444E+00-9.96024E-04 3.10572E-01 2.70203E+00-4.01646E-03 4.56391E+01 1.81048E+01-1.16981E+00 7.92004E-03 3.32556E+00-9.95250E-04



 n o d a l   p r i n t   o u t   f o r   t i m e  s t e p    1622                              ( at time 3.3494302E-01 )

 nodal point  x-rot      y-rot       z-rot       x-rot vel   y-rot vel   z-rot vel   x-rot acc   y-rot acc   z-rot acc
  1100002  6.23378E-05 7.66171E-07-7.62794E-05-7.15480E-03 1.51817E-05-3.24826E-02-2.71698E-01 9.74647E-05 4.46017E+00
  1200000 -2.75323E-04 5.00088E-07-4.22287E-04 7.38023E-03 5.11399E-06-1.83893E-02 1.10645E-01 8.40374E-04 6.06026E+00



 n o d a l   p r i n t   o u t   f o r   t i m e  s t e p    1647                              ( at time 3.3996633E-01 )

 nodal point  x-disp     y-disp      z-disp      x-vel       y-vel       z-vel      x-accl      y-accl      z-accl      x-coor      y-coor      z-coor
  1100002  6.02385E-03 1.25615E+00 1.31759E-04-1.27207E-01-2.71984E-01-4.47810E-03-4.39945E+00 1.80223E+02-7.84343E-01 6.05128E-03-6.64385E+00 1.32533E-04
  1200000  9.40639E-03-1.36360E+00-1.02945E-03 2.61651E-01 1.02606E+00-1.23420E-04-9.73871E+00-3.33637E+02 7.74997E-01 9.43264E-03 3.33640E+00-1.02867E-03



 n o d a l   p r i n t   o u t   f o r   t i m e  s t e p    1647                              ( at time 3.3996633E-01 )

 nodal point  x-rot      y-rot       z-rot       x-rot vel   y-rot vel   z-rot vel   x-rot acc   y-rot acc   z-rot acc
  1100002  2.42832E-05 8.42126E-07-1.90920E-04-7.84759E-03 1.48119E-05-1.74131E-02-1.37916E-01-7.36022E-05 2.99992E+00
  1200000 -2.38606E-04 5.36557E-07-4.51847E-04 7.08608E-03 8.71690E-06 1.59771E-03-5.85562E-02 7.17240E-04 3.97887E+00



 n o d a l   p r i n t   o u t   f o r   t i m e  s t e p    1672                              ( at time 3.4499364E-01 )

 nodal point  x-disp     y-disp      z-disp      x-vel       y-vel       z-vel      x-accl      y-accl      z-accl      x-coor      y-coor      z-coor
  1100002  5.39489E-03 1.25846E+00 7.49756E-05-8.89254E-02 1.13730E+00-1.24737E-02 7.61463E+00 2.80325E+02-1.59043E+00 5.42232E-03-6.64154E+00 7.57496E-05
  1200000  1.06848E-02-1.36487E+00-9.82507E-04 2.10566E-01-1.12704E+00 3.60989E-03-1.01616E+01-4.28282E+02 7.42605E-01 1.07111E-02 3.33513E+00-9.81733E-04



 n o d a l   p r i n t   o u t   f o r   t i m e  s t e p    1672                              ( at time 3.4499364E-01 )

 nodal point  x-rot      y-rot       z-rot       x-rot vel   y-rot vel   z-rot vel   x-rot acc   y-rot acc   z-rot acc
  1100002 -1.46533E-05 9.11246E-07-2.95724E-04-7.42472E-03 1.23561E-05-2.83034E-02 8.41147E-02-4.88506E-04-2.16624E+00
  1200000 -2.04651E-04 5.83986E-07-4.54479E-04 6.56212E-03 9.62553E-06-6.99101E-03-1.04222E-01 1.80738E-04-1.70841E+00



 n o d a l   p r i n t   o u t   f o r   t i m e  s t e p    1696                              ( at time 3.4981411E-01 )

 nodal point  x-disp     y-disp      z-disp      x-vel       y-vel       z-vel      x-accl      y-accl      z-accl      x-coor      y-coor      z-coor
  1100002  5.14032E-03 1.26646E+00 5.28779E-05-3.55364E-02 1.97926E+00 5.62481E-03 1.10755E+01 1.74664E+02 3.75451E+00 5.16775E-03-6.63354E+00 5.36519E-05
  1200000  1.12833E-02-1.37271E+00-9.81693E-04 3.96113E-02-1.69890E+00-6.91764E-03-3.54643E+01-1.18631E+02-2.18392E+00 1.13095E-02 3.32729E+00-9.80919E-04



 n o d a l   p r i n t   o u t   f o r   t i m e  s t e p    1696                              ( at time 3.4981411E-01 )

 nodal point  x-rot      y-rot       z-rot       x-rot vel   y-rot vel   z-rot vel   x-rot acc   y-rot acc   z-rot acc
  1100002 -4.77226E-05 9.60981E-07-4.95765E-04-6.33302E-03 8.37785E-06-5.42264E-02 2.26472E-01-8.25274E-04-5.37769E+00
  1200000 -1.73207E-04 6.29029E-07-5.46128E-04 6.48757E-03 9.24866E-06-3.04547E-02-1.54667E-02-7.81806E-05-4.86750E+00



 n o d a l   p r i n t   o u t   f o r   t i m e  s t e p    1721                              ( at time 3.5483728E-01 )

 nodal point  x-disp     y-disp      z-disp      x-vel       y-vel       z-vel      x-accl      y-accl      z-accl      x-coor      y-coor      z-coor
  1100002  4.96116E-03 1.27755E+00 6.36948E-05-7.55100E-02 2.32970E+00 5.25696E-03-7.95784E+00 6.97646E+01-7.32313E-02 4.98860E-03-6.62245E+00 6.44688E-05
  1200000  1.15955E-02-1.38297E+00-1.00085E-03 1.41074E-01-2.63746E+00-5.44375E-03 2.01989E+01-1.86846E+02 2.93418E-01 1.16218E-02 3.31703E+00-1.00007E-03



 n o d a l   p r i n t   o u t   f o r   t i m e  s t e p    1721                              ( at time 3.5483728E-01 )

 nodal point  x-rot      y-rot       z-rot       x-rot vel   y-rot vel   z-rot vel   x-rot acc   y-rot acc   z-rot acc
  1100002 -7.70521E-05 9.94189E-07-8.25021E-04-5.39008E-03 5.29396E-06-7.31270E-02 1.87719E-01-6.13933E-04-3.76269E+00
  1200000 -1.42051E-04 6.77478E-07-7.43961E-04 5.84320E-03 1.05552E-05-4.43212E-02-1.28279E-01 2.60097E-04-2.76053E+00



 n o d a l   p r i n t   o u t   f o r   t i m e  s t e p    1746                              ( at time 3.5986405E-01 )

 nodal point  x-disp     y-disp      z-disp      x-vel       y-vel       z-vel      x-accl      y-accl      z-accl      x-coor      y-coor      z-coor
  1100002  3.92041E-03 1.28847E+00 7.02970E-05-3.31000E-01 1.91460E+00-4.18573E-03-5.08258E+01-8.25776E+01-1.87848E+00 3.94784E-03-6.61153E+00 7.10711E-05
  1200000  1.28341E-02-1.39756E+00-1.06515E-03 3.61738E-01-2.98097E+00-1.98012E-03 4.38978E+01-6.83366E+01 6.89036E-01 1.28604E-02 3.30244E+00-1.06438E-03



 n o d a l   p r i n t   o u t   f o r   t i m e  s t e p    1746                              ( at time 3.5986405E-01 )

 nodal point  x-rot      y-rot       z-rot       x-rot vel   y-rot vel   z-rot vel   x-rot acc   y-rot acc   z-rot acc
  1100002 -1.02077E-04 1.01830E-06-1.20076E-03-4.66926E-03 4.88787E-06-7.35730E-02 1.43397E-01-8.07863E-05-8.87275E-02
  1200000 -1.16585E-04 7.37835E-07-9.61474E-04 4.15790E-03 1.37775E-05-4.07724E-02-3.35265E-01 6.41043E-04 7.05988E-01



 n o d a l   p r i n t   o u t   f o r   t i m e  s t e p    1771                              ( at time 3.6488503E-01 )

 nodal point  x-disp     y-disp      z-disp      x-vel       y-vel       z-vel      x-accl      y-accl      z-accl      x-coor      y-coor      z-coor
  1100002  2.24758E-03 1.29433E+00 3.24930E-05-3.00542E-01 3.71110E-01-1.40636E-02 6.06616E+00-3.07408E+02-1.96731E+00 2.27502E-03-6.60567E+00 3.32670E-05
  1200000  1.51344E-02-1.40777E+00-1.08329E-03 4.73513E-01-8.13453E-01 6.84602E-04 2.22617E+01 4.31693E+02 5.30718E-01 1.51607E-02 3.29223E+00-1.08252E-03



 n o d a l   p r i n t   o u t   f o r   t i m e  s t e p    1771                              ( at time 3.6488503E-01 )

 nodal point  x-rot      y-rot       z-rot       x-rot vel   y-rot vel   z-rot vel   x-rot acc   y-rot acc   z-rot acc
  1100002 -1.23241E-04 1.04806E-06-1.54248E-03-3.68875E-03 7.36865E-06-6.14780E-02 1.95282E-01 4.94083E-04 2.40890E+00
  1200000 -1.01443E-04 8.14185E-07-1.14935E-03 2.01365E-03 1.61075E-05-3.46840E-02-4.27058E-01 4.64035E-04 1.21260E+00



 n o d a l   p r i n t   o u t   f o r   t i m e  s t e p    1796                              ( at time 3.6990672E-01 )

 nodal point  x-disp     y-disp      z-disp      x-vel       y-vel       z-vel      x-accl      y-accl      z-accl      x-coor      y-coor      z-coor
  1100002  9.49354E-04 1.29187E+00-6.36114E-06-1.80521E-01-1.25353E+00-9.91338E-03 2.39005E+01-3.23524E+02 8.26449E-01 9.76786E-04-6.60813E+00-5.58712E-06
[...]
  1200000  4.27163E+00-6.00823E+00 7.52122E-03 2.13820E+00-1.65051E+00-5.69572E-03-9.97432E-01 1.08296E+01-3.02561E-01 4.27166E+00-1.30823E+00 7.52200E-03



 n o d a l   p r i n t   o u t   f o r   t i m e  s t e p   24491                              ( at time 4.9098871E+00 )

 nodal point  x-rot      y-rot       z-rot       x-rot vel   y-rot vel   z-rot vel   x-rot acc   y-rot acc   z-rot acc
  1100002  3.19197E-04 1.59880E-04-1.56725E-01 4.65044E-04 4.36068E-03-3.23486E-02 1.76917E-01-4.65145E-03 4.57166E-01
  1200000  5.73613E-05 1.51860E-04-1.58618E-01 9.99222E-04 4.98156E-03-3.32256E-02-7.20971E-02 2.97169E-02 3.32326E-01



 n o d a l   p r i n t   o u t   f o r   t i m e  s t e p   24516                              ( at time 4.9148503E+00 )

 nodal point  x-disp     y-disp      z-disp      x-vel       y-vel       z-vel      x-accl      y-accl      z-accl      x-coor      y-coor      z-coor
  1100002  2.79829E+00-2.71838E+00 5.53625E-03 1.83773E+00-1.53135E+00 1.96624E-03-3.80795E-01 1.37624E+01 6.87992E-01 2.79832E+00-1.06184E+01 5.53702E-03
  1200000  4.28230E+00-6.01627E+00 7.45460E-03 2.16595E+00-1.58741E+00-2.32972E-03 5.59102E+00 1.27141E+01 6.78189E-01 4.28232E+00-1.31627E+00 7.45537E-03



 n o d a l   p r i n t   o u t   f o r   t i m e  s t e p   24516                              ( at time 4.9148503E+00 )

 nodal point  x-rot      y-rot       z-rot       x-rot vel   y-rot vel   z-rot vel   x-rot acc   y-rot acc   z-rot acc
  1100002  3.23396E-04 1.81667E-04-1.56883E-01 1.00965E-03 4.45491E-03-3.15370E-02 1.09728E-01 1.89869E-02 1.63526E-01
  1200000  6.07945E-05 1.76884E-04-1.58781E-01 3.04545E-04 5.10317E-03-3.29756E-02-1.39965E-01 2.45039E-02 5.03544E-02



 n o d a l   p r i n t   o u t   f o r   t i m e  s t e p   24541                              ( at time 4.9198171E+00 )

 nodal point  x-disp     y-disp      z-disp      x-vel       y-vel       z-vel      x-accl      y-accl      z-accl      x-coor      y-coor      z-coor
  1100002  2.80776E+00-2.72576E+00 5.52870E-03 1.91478E+00-1.42015E+00 5.00964E-03 1.55116E+01 2.23886E+01 6.12755E-01 2.80778E+00-1.06258E+01 5.52947E-03
  1200000  4.29305E+00-6.02383E+00 7.50920E-03 2.17048E+00-1.45950E+00 7.92642E-03 9.12970E-01 2.57530E+01 2.06495E+00 4.29308E+00-1.32383E+00 7.50998E-03



 n o d a l   p r i n t   o u t   f o r   t i m e  s t e p   24541                              ( at time 4.9198171E+00 )

 nodal point  x-rot      y-rot       z-rot       x-rot vel   y-rot vel   z-rot vel   x-rot acc   y-rot acc   z-rot acc
  1100002  3.28853E-04 2.04290E-04-1.57041E-01 1.26103E-03 4.63899E-03-3.19907E-02 5.06133E-02 3.70618E-02-9.13465E-02
  1200000  6.05440E-05 2.02411E-04-1.58948E-01-2.66592E-04 5.14772E-03-3.36934E-02-1.14992E-01 8.96859E-03-1.44508E-01



 n o d a l   p r i n t   o u t   f o r   t i m e  s t e p   24567                              ( at time 4.9249679E+00 )

 nodal point  x-disp     y-disp      z-disp      x-vel       y-vel       z-vel      x-accl      y-accl      z-accl      x-coor      y-coor      z-coor
  1100002  2.81757E+00-2.73274E+00 5.53564E-03 1.87299E+00-1.31688E+00 3.17230E-03-8.11282E+00 2.00485E+01-3.56704E-01 2.81759E+00-1.06327E+01 5.53641E-03
  1200000  4.30433E+00-6.03108E+00 7.51986E-03 2.17682E+00-1.35517E+00-3.83893E-03 1.23104E+00 2.02545E+01-2.28414E+00 4.30435E+00-1.33108E+00 7.52064E-03



 n o d a l   p r i n t   o u t   f o r   t i m e  s t e p   24567                              ( at time 4.9249679E+00 )

 nodal point  x-rot      y-rot       z-rot       x-rot vel   y-rot vel   z-rot vel   x-rot acc   y-rot acc   z-rot acc
  1100002  3.36529E-04 2.28652E-04-1.57203E-01 1.69468E-03 4.81397E-03-3.10082E-02 8.41894E-02 3.39715E-02 1.90737E-01
  1200000  5.85823E-05 2.28800E-04-1.59118E-01-4.47932E-04 5.09097E-03-3.23894E-02-3.52056E-02-1.10177E-02 2.53154E-01



 n o d a l   p r i n t   o u t   f o r   t i m e  s t e p   24592                              ( at time 4.9299444E+00 )

 nodal point  x-disp     y-disp      z-disp      x-vel       y-vel       z-vel      x-accl      y-accl      z-accl      x-coor      y-coor      z-coor
  1100002  2.82721E+00-2.73923E+00 5.55244E-03 1.99340E+00-1.29081E+00 9.99012E-03 2.41964E+01 5.23864E+00 1.37002E+00 2.82723E+00-1.06392E+01 5.55322E-03
  1200000  4.31520E+00-6.03774E+00 7.49622E-03 2.20648E+00-1.33947E+00-1.53269E-02 5.95968E+00 3.15565E+00-2.30848E+00 4.31523E+00-1.33774E+00 7.49699E-03



 n o d a l   p r i n t   o u t   f o r   t i m e  s t e p   24592                              ( at time 4.9299444E+00 )

 nodal point  x-rot      y-rot       z-rot       x-rot vel   y-rot vel   z-rot vel   x-rot acc   y-rot acc   z-rot acc
  1100002  3.45331E-04 2.53118E-04-1.57355E-01 1.73363E-03 5.02179E-03-2.97731E-02 7.82542E-03 4.17590E-02 2.48198E-01
  1200000  5.63031E-05 2.53913E-04-1.59274E-01-4.42278E-04 5.00317E-03-3.00987E-02 1.13610E-03-1.76438E-02 4.60311E-01



 n o d a l   p r i n t   o u t   f o r   t i m e  s t e p   24617                              ( at time 4.9349134E+00 )

 nodal point  x-disp     y-disp      z-disp      x-vel       y-vel       z-vel      x-accl      y-accl      z-accl      x-coor      y-coor      z-coor
  1100002  2.83668E+00-2.74553E+00 5.57835E-03 1.87385E+00-1.25637E+00-4.74903E-03-2.40590E+01 6.93056E+00-2.96621E+00 2.83671E+00-1.06455E+01 5.57912E-03
  1200000  4.32604E+00-6.04428E+00 7.44833E-03 2.15591E+00-1.29333E+00-1.19926E-03-1.01778E+01 9.28556E+00 2.84314E+00 4.32606E+00-1.34428E+00 7.44911E-03



 n o d a l   p r i n t   o u t   f o r   t i m e  s t e p   24617                              ( at time 4.9349134E+00 )

 nodal point  x-rot      y-rot       z-rot       x-rot vel   y-rot vel   z-rot vel   x-rot acc   y-rot acc   z-rot acc
  1100002  3.51542E-04 2.78900E-04-1.57498E-01 6.48457E-04 5.35735E-03-2.82550E-02-2.18387E-01 6.75306E-02 3.05508E-01
  1200000  5.36778E-05 2.78671E-04-1.59415E-01-6.23588E-04 4.97287E-03-2.70920E-02-3.64881E-02-6.09687E-03 6.05085E-01



 n o d a l   p r i n t   o u t   f o r   t i m e  s t e p   24642                              ( at time 4.9398810E+00 )

 nodal point  x-disp     y-disp      z-disp      x-vel       y-vel       z-vel      x-accl      y-accl      z-accl      x-coor      y-coor      z-coor
  1100002  2.84610E+00-2.75173E+00 5.58894E-03 1.88099E+00-1.24224E+00 6.84130E-03 1.43835E+00 2.84556E+00 2.33317E+00 2.84613E+00-1.06517E+01 5.58971E-03
  1200000  4.33674E+00-6.05071E+00 7.48669E-03 2.16432E+00-1.30127E+00 7.94509E-03 1.69308E+00-1.59958E+00 1.84079E+00 4.33677E+00-1.35071E+00 7.48746E-03



 n o d a l   p r i n t   o u t   f o r   t i m e  s t e p   24642                              ( at time 4.9398810E+00 )

 nodal point  x-rot      y-rot       z-rot       x-rot vel   y-rot vel   z-rot vel   x-rot acc   y-rot acc   z-rot acc
  1100002  3.51599E-04 3.06285E-04-1.57639E-01-4.84717E-04 5.62845E-03-2.84916E-02-2.28111E-01 5.45735E-02-4.76315E-02
  1200000  5.10542E-05 3.03254E-04-1.59546E-01-3.22908E-04 4.91636E-03-2.58246E-02 6.05279E-02-1.13753E-02 2.55141E-01



 n o d a l   p r i n t   o u t   f o r   t i m e  s t e p   24667                              ( at time 4.9448529E+00 )

 nodal point  x-disp     y-disp      z-disp      x-vel       y-vel       z-vel      x-accl      y-accl      z-accl      x-coor      y-coor      z-coor
  1100002  2.85542E+00-2.75805E+00 5.61897E-03 1.84359E+00-1.29753E+00 4.18281E-04-7.52334E+00-1.11220E+01-1.29188E+00 2.85544E+00-1.06581E+01 5.61974E-03
  1200000  4.34748E+00-6.05726E+00 7.48020E-03 2.13195E+00-1.33550E+00 2.03391E-03-6.51023E+00-6.88335E+00-1.18893E+00 4.34751E+00-1.35726E+00 7.48098E-03



 n o d a l   p r i n t   o u t   f o r   t i m e  s t e p   24667                              ( at time 4.9448529E+00 )

 nodal point  x-rot      y-rot       z-rot       x-rot vel   y-rot vel   z-rot vel   x-rot acc   y-rot acc   z-rot acc
  1100002  3.47486E-04 3.34595E-04-1.57784E-01-1.08454E-03 5.73221E-03-3.03935E-02-1.20644E-01 2.08700E-02-3.82529E-01
  1200000  5.09859E-05 3.27556E-04-1.59675E-01 2.46625E-04 4.87500E-03-2.66385E-02 1.14552E-01-8.31835E-03-1.63700E-01



 n o d a l   p r i n t   o u t   f o r   t i m e  s t e p   24692                              ( at time 4.9498218E+00 )

 nodal point  x-disp     y-disp      z-disp      x-vel       y-vel       z-vel      x-accl      y-accl      z-accl      x-coor      y-coor      z-coor
  1100002  2.86458E+00-2.76459E+00 5.65778E-03 1.87764E+00-1.34507E+00 1.77451E-02 6.85256E+00-9.56732E+00 3.48705E+00 2.86460E+00-1.06646E+01 5.65855E-03
  1200000  4.35778E+00-6.06403E+00 7.45877E-03 2.05360E+00-1.38591E+00-4.35534E-03-1.57685E+01-1.01455E+01-1.28585E+00 4.35781E+00-1.36403E+00 7.45954E-03



 n o d a l   p r i n t   o u t   f o r   t i m e  s t e p   24692                              ( at time 4.9498218E+00 )

 nodal point  x-rot      y-rot       z-rot       x-rot vel   y-rot vel   z-rot vel   x-rot acc   y-rot acc   z-rot acc
  1100002  3.41774E-04 3.62975E-04-1.57944E-01-1.17082E-03 5.67433E-03-3.32298E-02-1.73638E-02-1.16476E-02-5.70810E-01
  1200000  5.35652E-05 3.51818E-04-1.59815E-01 7.16884E-04 4.90686E-03-2.91066E-02 9.46405E-02 6.41060E-03-4.96714E-01



 n o d a l   p r i n t   o u t   f o r   t i m e  s t e p   24718                              ( at time 4.9549800E+00 )

 nodal point  x-disp     y-disp      z-disp      x-vel       y-vel       z-vel      x-accl      y-accl      z-accl      x-coor      y-coor      z-coor
  1100002  2.87389E+00-2.77164E+00 5.72138E-03 1.76514E+00-1.38031E+00 8.46930E-03-2.18094E+01-6.83117E+00-1.79824E+00 2.87392E+00-1.06716E+01 5.72216E-03
  1200000  4.36865E+00-6.07128E+00 7.43277E-03 2.12161E+00-1.43148E+00-1.80111E-03 1.31863E+01-8.83384E+00 4.95172E-01 4.36867E+00-1.37128E+00 7.43354E-03



 n o d a l   p r i n t   o u t   f o r   t i m e  s t e p   24718                              ( at time 4.9549800E+00 )

 nodal point  x-rot      y-rot       z-rot       x-rot vel   y-rot vel   z-rot vel   x-rot acc   y-rot acc   z-rot acc
  1100002  3.35530E-04 3.91931E-04-1.58117E-01-1.24607E-03 5.54875E-03-3.39478E-02-1.45874E-02-2.43456E-02-1.39186E-01
  1200000  5.74104E-05 3.77507E-04-1.59969E-01 7.10995E-04 5.06331E-03-3.09633E-02-1.14177E-03 3.03299E-02-3.59943E-01



 n o d a l   p r i n t   o u t   f o r   t i m e  s t e p   24743                              ( at time 4.9599469E+00 )

 nodal point  x-disp     y-disp      z-disp      x-vel       y-vel       z-vel      x-accl      y-accl      z-accl      x-coor      y-coor      z-coor
  1100002  2.88276E+00-2.77864E+00 5.77257E-03 1.76841E+00-1.44611E+00 1.75457E-02 6.59312E-01-1.32482E+01 1.82741E+00 2.88278E+00-1.06786E+01 5.77335E-03
  1200000  4.37914E+00-6.07857E+00 7.42894E-03 2.13492E+00-1.49660E+00-6.35362E-03 2.67940E+00-1.31125E+01-9.16583E-01 4.37917E+00-1.37857E+00 7.42972E-03



 n o d a l   p r i n t   o u t   f o r   t i m e  s t e p   24743                              ( at time 4.9599469E+00 )

 nodal point  x-rot      y-rot       z-rot       x-rot vel   y-rot vel   z-rot vel   x-rot acc   y-rot acc   z-rot acc
  1100002  3.29771E-04 4.19010E-04-1.58288E-01-1.01516E-03 5.35003E-03-3.46313E-02 4.64898E-02-4.00104E-02-1.37627E-01
  1200000  6.05559E-05 4.03147E-04-1.60131E-01 5.37694E-04 5.25721E-03-3.44010E-02-3.48917E-02 3.90399E-02-6.92138E-01



 n o d a l   p r i n t   o u t   f o r   t i m e  s t e p   24768                              ( at time 4.9649162E+00 )

 nodal point  x-disp     y-disp      z-disp      x-vel       y-vel       z-vel      x-accl      y-accl      z-accl      x-coor      y-coor      z-coor
  1100002  2.89151E+00-2.78604E+00 5.82626E-03 1.80490E+00-1.52570E+00 3.23984E-03 7.34211E+00-1.60150E+01-2.87882E+00 2.89154E+00-1.06860E+01 5.82704E-03
  1200000  4.38996E+00-6.08624E+00 7.43658E-03 2.18115E+00-1.59300E+00-1.79239E-04 9.30247E+00-1.93978E+01 1.24249E+00 4.38999E+00-1.38624E+00 7.43735E-03



 n o d a l   p r i n t   o u t   f o r   t i m e  s t e p   24768                              ( at time 4.9649162E+00 )

 nodal point  x-rot      y-rot       z-rot       x-rot vel   y-rot vel   z-rot vel   x-rot acc   y-rot acc   z-rot acc
  1100002  3.25657E-04 4.45034E-04-1.58462E-01-6.04683E-04 5.12788E-03-3.60741E-02 8.26017E-02-4.47039E-02-2.90323E-01
  1200000  6.18033E-05 4.29897E-04-1.60314E-01-5.56689E-05 5.49997E-03-3.91893E-02-1.19404E-01 4.88503E-02-9.63569E-01



 n o d a l   p r i n t   o u t   f o r   t i m e  s t e p   24793                              ( at time 4.9698866E+00 )

 nodal point  x-disp     y-disp      z-disp      x-vel       y-vel       z-vel      x-accl      y-accl      z-accl      x-coor      y-coor      z-coor
  1100002  2.90045E+00-2.79378E+00 5.87264E-03 1.81349E+00-1.58998E+00 1.22708E-02 1.72743E+00-1.29331E+01 1.81694E+00 2.90048E+00-1.06938E+01 5.87342E-03
  1200000  4.40062E+00-6.09430E+00 7.43612E-03 2.14546E+00-1.63620E+00-4.00818E-03-7.18011E+00-8.69190E+00-7.70349E-01 4.40065E+00-1.39430E+00 7.43689E-03



 n o d a l   p r i n t   o u t   f o r   t i m e  s t e p   24793                              ( at time 4.9698866E+00 )

 nodal point  x-rot      y-rot       z-rot       x-rot vel   y-rot vel   z-rot vel   x-rot acc   y-rot acc   z-rot acc
  1100002  3.24261E-04 4.69938E-04-1.58649E-01 2.34327E-06 4.91275E-03-3.84393E-02 1.22128E-01-4.32829E-02-4.75864E-01
  1200000  5.97181E-05 4.57797E-04-1.60522E-01-7.74092E-04 5.70934E-03-4.37680E-02-1.44540E-01 4.21232E-02-9.21195E-01



 n o d a l   p r i n t   o u t   f o r   t i m e  s t e p   24818                              ( at time 4.9748471E+00 )

 nodal point  x-disp     y-disp      z-disp      x-vel       y-vel       z-vel      x-accl      y-accl      z-accl      x-coor      y-coor      z-coor
  1100002  2.90951E+00-2.80165E+00 5.92669E-03 1.81430E+00-1.56825E+00 5.81603E-03 1.63193E-01 4.38050E+00-1.30123E+00 2.90954E+00-1.07017E+01 5.92747E-03
  1200000  4.41139E+00-6.10244E+00 7.41533E-03 2.18011E+00-1.63654E+00 1.45227E-04 6.98490E+00-6.94858E-02 8.37298E-01 4.41142E+00-1.40244E+00 7.41610E-03



 n o d a l   p r i n t   o u t   f o r   t i m e  s t e p   24818                              ( at time 4.9748471E+00 )

 nodal point  x-rot      y-rot       z-rot       x-rot vel   y-rot vel   z-rot vel   x-rot acc   y-rot acc   z-rot acc
  1100002  3.24995E-04 4.94016E-04-1.58841E-01 2.11145E-04 4.82208E-03-3.90032E-02 4.20929E-02-1.82781E-02-1.13690E-01
  1200000  5.37466E-05 4.86532E-04-1.60742E-01-1.57715E-03 5.85167E-03-4.42622E-02-1.61891E-01 2.86937E-02-9.96180E-02



 n o d a l   p r i n t   o u t   f o r   t i m e  s t e p   24843                              ( at time 4.9798023E+00 )

 nodal point  x-disp     y-disp      z-disp      x-vel       y-vel       z-vel      x-accl      y-accl      z-accl      x-coor      y-coor      z-coor
  1100002  2.91870E+00-2.80938E+00 5.96793E-03 1.85882E+00-1.54427E+00 1.69070E-02 8.98608E+00 4.83848E+00 2.23824E+00 2.91873E+00-1.07094E+01 5.96870E-03
  1200000  4.42212E+00-6.11040E+00 7.38887E-03 2.16451E+00-1.57760E+00-6.96130E-03-3.14864E+00 1.18959E+01-1.43415E+00 4.42214E+00-1.41040E+00 7.38964E-03



 n o d a l   p r i n t   o u t   f o r   t i m e  s t e p   24843                              ( at time 4.9798023E+00 )

 nodal point  x-rot      y-rot       z-rot       x-rot vel   y-rot vel   z-rot vel   x-rot acc   y-rot acc   z-rot acc
  1100002  3.26294E-04 5.17868E-04-1.59032E-01 2.84950E-04 4.81975E-03-3.75098E-02 1.48944E-02-4.70077E-04 3.01383E-01
  1200000  4.50983E-05 5.15498E-04-1.60953E-01-1.79961E-03 5.80903E-03-4.05453E-02-4.48937E-02-8.60449E-03 7.50098E-01



 n o d a l   p r i n t   o u t   f o r   t i m e  s t e p   24869                              ( at time 4.9849739E+00 )

 nodal point  x-disp     y-disp      z-disp      x-vel       y-vel       z-vel      x-accl      y-accl      z-accl      x-coor      y-coor      z-coor
  1100002  2.92809E+00-2.81716E+00 6.02501E-03 1.85362E+00-1.48017E+00 6.82580E-03-1.00612E+00 1.23960E+01-1.94933E+00 2.92812E+00-1.07172E+01 6.02578E-03
  1200000  4.43341E+00-6.11848E+00 7.35988E-03 2.15693E+00-1.53874E+00-1.18151E-03-1.46541E+00 7.51444E+00 1.11760E+00 4.43344E+00-1.41848E+00 7.36065E-03



 n o d a l   p r i n t   o u t   f o r   t i m e  s t e p   24869                              ( at time 4.9849739E+00 )

 nodal point  x-rot      y-rot       z-rot       x-rot vel   y-rot vel   z-rot vel   x-rot acc   y-rot acc   z-rot acc
  1100002  3.27118E-04 5.43067E-04-1.59218E-01 1.36332E-06 4.93639E-03-3.48540E-02-5.48352E-02 2.25540E-02 5.13543E-01
  1200000  3.60168E-05 5.45080E-04-1.61146E-01-1.66000E-03 5.61620E-03-3.44599E-02 2.69948E-02-3.72876E-02 1.17669E+00



 n o d a l   p r i n t   o u t   f o r   t i m e  s t e p   24894                              ( at time 4.9899555E+00 )

 nodal point  x-disp     y-disp      z-disp      x-vel       y-vel       z-vel      x-accl      y-accl      z-accl      x-coor      y-coor      z-coor
  1100002  2.93711E+00-2.82437E+00 6.07116E-03 1.76189E+00-1.41005E+00 1.35870E-02-1.84148E+01 1.40753E+01 1.35723E+00 2.93714E+00-1.07244E+01 6.07193E-03
  1200000  4.44390E+00-6.12592E+00 7.34528E-03 2.08464E+00-1.45965E+00-3.57847E-03-1.45106E+01 1.58750E+01-4.81161E-01 4.44393E+00-1.42592E+00 7.34606E-03



 n o d a l   p r i n t   o u t   f o r   t i m e  s t e p   24894                              ( at time 4.9899555E+00 )

 nodal point  x-rot      y-rot       z-rot       x-rot vel   y-rot vel   z-rot vel   x-rot acc   y-rot acc   z-rot acc
  1100002  3.26336E-04 5.68040E-04-1.59386E-01-3.12615E-04 5.08752E-03-3.27189E-02-6.30276E-02 3.03379E-02 4.28587E-01
  1200000  2.90210E-05 5.72296E-04-1.61304E-01-1.12414E-03 5.30927E-03-2.91934E-02 1.07568E-01-6.16121E-02 1.05720E+00



 n o d a l   p r i n t   o u t   f o r   t i m e  s t e p   24919                              ( at time 4.9949362E+00 )

 nodal point  x-disp     y-disp      z-disp      x-vel       y-vel       z-vel      x-accl      y-accl      z-accl      x-coor      y-coor      z-coor
  1100002  2.94590E+00-2.83118E+00 6.13053E-03 1.75981E+00-1.33270E+00 5.59705E-03-4.17445E-01 1.55292E+01-1.60418E+00 2.94592E+00-1.07312E+01 6.13131E-03
  1200000  4.45416E+00-6.13301E+00 7.32717E-03 2.03072E+00-1.37954E+00-6.98695E-03-1.08265E+01 1.60845E+01-6.84338E-01 4.45419E+00-1.43301E+00 7.32794E-03



 n o d a l   p r i n t   o u t   f o r   t i m e  s t e p   24919                              ( at time 4.9949362E+00 )

 nodal point  x-rot      y-rot       z-rot       x-rot vel   y-rot vel   z-rot vel   x-rot acc   y-rot acc   z-rot acc
  1100002  3.23524E-04 5.93844E-04-1.59545E-01-8.20261E-04 5.26727E-03-3.12158E-02-1.01923E-01 3.60884E-02 3.01790E-01
  1200000  2.50112E-05 5.97868E-04-1.61440E-01-5.06031E-04 4.97220E-03-2.57569E-02 1.24100E-01-6.76745E-02 6.89951E-01



 n o d a l   p r i n t   o u t   f o r   t i m e  s t e p   24944                              ( at time 4.9998876E+00 )

 nodal point  x-disp     y-disp      z-disp      x-vel       y-vel       z-vel      x-accl      y-accl      z-accl      x-coor      y-coor      z-coor
  1100002  2.95462E+00-2.83761E+00 6.18969E-03 1.74886E+00-1.25846E+00 2.10428E-02-2.21163E+00 1.49946E+01 3.11949E+00 2.95465E+00-1.07376E+01 6.19047E-03
  1200000  4.46416E+00-6.13961E+00 7.31464E-03 2.01860E+00-1.29921E+00 4.53324E-04-2.44729E+00 1.62233E+01 1.50267E+00 4.46419E+00-1.43961E+00 7.31541E-03



 n o d a l   p r i n t   o u t   f o r   t i m e  s t e p   24944                              ( at time 4.9998876E+00 )

 nodal point  x-rot      y-rot       z-rot       x-rot vel   y-rot vel   z-rot vel   x-rot acc   y-rot acc   z-rot acc
  1100002  3.18241E-04 6.20301E-04-1.59696E-01-1.27294E-03 5.40169E-03-2.97231E-02-9.14254E-02 2.71480E-02 3.01479E-01
  1200000  2.42168E-05 6.21645E-04-1.61562E-01 1.38258E-04 4.65443E-03-2.41939E-02 1.30124E-01-6.41783E-02 3.15672E-01
