 Bolted Connection Type b                                                
                    ls-dyna smp d R13 R13.1.1_27_8731a0 date 07/28/2023

{BEGIN LEGEND}
 Entity #        Title
        2      Contact Force Between Sheets                                        
    10001      Global Contact                                                      
    10013      Beam Contact                                                        
{END LEGEND}

 interface number,     10001,is single surface-resultants are undefined
 interface number,     10001,is single surface-resultants are undefined
  slave           2 time 0.00000E+00  x  0.00000E+00  y  0.00000E+00  z  0.00000E+00 mass  0.00000E+00  mx  0.00000E+00  my  0.00000E+00  mz  0.00000E+00
  master          2 time 0.00000E+00  x  0.00000E+00  y  0.00000E+00  z  0.00000E+00 mass  0.00000E+00  mx  0.00000E+00  my  0.00000E+00  mz  0.00000E+00
 interface number,     10013,is single surface-resultants are undefined
 interface number,     10013,is single surface-resultants are undefined
 interface number,     10001,is single surface-resultants are undefined
 interface number,     10001,is single surface-resultants are undefined
  slave           2 time 4.87301E-03  x  0.00000E+00  y  0.00000E+00  z  0.00000E+00 mass  0.00000E+00  mx  0.00000E+00  my  0.00000E+00  mz  0.00000E+00
  master          2 time 4.87301E-03  x  0.00000E+00  y  0.00000E+00  z  0.00000E+00 mass  0.00000E+00  mx  0.00000E+00  my  0.00000E+00  mz  0.00000E+00
 interface number,     10013,is single surface-resultants are undefined
 interface number,     10013,is single surface-resultants are undefined
 interface number,     10001,is single surface-resultants are undefined
 interface number,     10001,is single surface-resultants are undefined
  slave           2 time 9.95789E-03  x  0.00000E+00  y  0.00000E+00  z  0.00000E+00 mass  0.00000E+00  mx  0.00000E+00  my  0.00000E+00  mz  0.00000E+00
  master          2 time 9.95789E-03  x  0.00000E+00  y  0.00000E+00  z  0.00000E+00 mass  0.00000E+00  mx  0.00000E+00  my  0.00000E+00  mz  0.00000E+00
 interface number,     10013,is single surface-resultants are undefined
 interface number,     10013,is single surface-resultants are undefined
 interface number,     10001,is single surface-resultants are undefined
 interface number,     10001,is single surface-resultants are undefined
  slave           2 time 1.48309E-02  x  0.00000E+00  y  0.00000E+00  z  0.00000E+00 mass  0.00000E+00  mx  0.00000E+00  my  0.00000E+00  mz  0.00000E+00
  master          2 time 1.48309E-02  x  0.00000E+00  y  0.00000E+00  z  0.00000E+00 mass  0.00000E+00  mx  0.00000E+00  my  0.00000E+00  mz  0.00000E+00
 interface number,     10013,is single surface-resultants are undefined
 interface number,     10013,is single surface-resultants are undefined
 interface number,     10001,is single surface-resultants are undefined
 interface number,     10001,is single surface-resultants are undefined
  slave           2 time 1.99158E-02  x  0.00000E+00  y  0.00000E+00  z  0.00000E+00 mass  0.00000E+00  mx  0.00000E+00  my  0.00000E+00  mz  0.00000E+00
  master          2 time 1.99158E-02  x  0.00000E+00  y  0.00000E+00  z  0.00000E+00 mass  0.00000E+00  mx  0.00000E+00  my  0.00000E+00  mz  0.00000E+00
 interface number,     10013,is single surface-resultants are undefined
 interface number,     10013,is single surface-resultants are undefined
 interface number,     10001,is single surface-resultants are undefined
 interface number,     10001,is single surface-resultants are undefined
  slave           2 time 2.47888E-02  x  0.00000E+00  y  0.00000E+00  z  0.00000E+00 mass  0.00000E+00  mx  0.00000E+00  my  0.00000E+00  mz  0.00000E+00
  master          2 time 2.47888E-02  x  0.00000E+00  y  0.00000E+00  z  0.00000E+00 mass  0.00000E+00  mx  0.00000E+00  my  0.00000E+00  mz  0.00000E+00
 interface number,     10013,is single surface-resultants are undefined
 interface number,     10013,is single surface-resultants are undefined
 interface number,     10001,is single surface-resultants are undefined
 interface number,     10001,is single surface-resultants are undefined
  slave           2 time 2.98737E-02  x  0.00000E+00  y  0.00000E+00  z  0.00000E+00 mass  0.00000E+00  mx  0.00000E+00  my  0.00000E+00  mz  0.00000E+00
  master          2 time 2.98737E-02  x  0.00000E+00  y  0.00000E+00  z  0.00000E+00 mass  0.00000E+00  mx  0.00000E+00  my  0.00000E+00  mz  0.00000E+00
 interface number,     10013,is single surface-resultants are undefined
 interface number,     10013,is single surface-resultants are undefined
 interface number,     10001,is single surface-resultants are undefined
 interface number,     10001,is single surface-resultants are undefined
  slave           2 time 3.49586E-02  x  0.00000E+00  y  0.00000E+00  z  0.00000E+00 mass  0.00000E+00  mx  0.00000E+00  my  0.00000E+00  mz  0.00000E+00
  master          2 time 3.49586E-02  x  0.00000E+00  y  0.00000E+00  z  0.00000E+00 mass  0.00000E+00  mx  0.00000E+00  my  0.00000E+00  mz  0.00000E+00
 interface number,     10013,is single surface-resultants are undefined
 interface number,     10013,is single surface-resultants are undefined
 interface number,     10001,is single surface-resultants are undefined
 interface number,     10001,is single surface-resultants are undefined
  slave           2 time 3.98316E-02  x  0.00000E+00  y  0.00000E+00  z  0.00000E+00 mass  0.00000E+00  mx  0.00000E+00  my  0.00000E+00  mz  0.00000E+00
  master          2 time 3.98316E-02  x  0.00000E+00  y  0.00000E+00  z  0.00000E+00 mass  0.00000E+00  mx  0.00000E+00  my  0.00000E+00  mz  0.00000E+00
 interface number,     10013,is single surface-resultants are undefined
 interface number,     10013,is single surface-resultants are undefined
 interface number,     10001,is single surface-resultants are undefined
 interface number,     10001,is single surface-resultants are undefined
  slave           2 time 4.49164E-02  x  0.00000E+00  y  0.00000E+00  z  0.00000E+00 mass  0.00000E+00  mx  0.00000E+00  my  0.00000E+00  mz  0.00000E+00
  master          2 time 4.49164E-02  x  0.00000E+00  y  0.00000E+00  z  0.00000E+00 mass  0.00000E+00  mx  0.00000E+00  my  0.00000E+00  mz  0.00000E+00
 interface number,     10013,is single surface-resultants are undefined
 interface number,     10013,is single surface-resultants are undefined
 interface number,     10001,is single surface-resultants are undefined
 interface number,     10001,is single surface-resultants are undefined
  slave           2 time 4.97895E-02  x  0.00000E+00  y  0.00000E+00  z  0.00000E+00 mass  0.00000E+00  mx  0.00000E+00  my  0.00000E+00  mz  0.00000E+00
  master          2 time 4.97895E-02  x  0.00000E+00  y  0.00000E+00  z  0.00000E+00 mass  0.00000E+00  mx  0.00000E+00  my  0.00000E+00  mz  0.00000E+00
 interface number,     10013,is single surface-resultants are undefined
 interface number,     10013,is single surface-resultants are undefined
 interface number,     10001,is single surface-resultants are undefined
 interface number,     10001,is single surface-resultants are undefined
  slave           2 time 5.48743E-02  x  0.00000E+00  y  0.00000E+00  z  0.00000E+00 mass  0.00000E+00  mx  0.00000E+00  my  0.00000E+00  mz  0.00000E+00
  master          2 time 5.48743E-02  x  0.00000E+00  y  0.00000E+00  z  0.00000E+00 mass  0.00000E+00  mx  0.00000E+00  my  0.00000E+00  mz  0.00000E+00
 interface number,     10013,is single surface-resultants are undefined
 interface number,     10013,is single surface-resultants are undefined
 interface number,     10001,is single surface-resultants are undefined
 interface number,     10001,is single surface-resultants are undefined
  slave           2 time 5.99592E-02  x  0.00000E+00  y  0.00000E+00  z  0.00000E+00 mass  0.00000E+00  mx  0.00000E+00  my  0.00000E+00  mz  0.00000E+00
  master          2 time 5.99592E-02  x  0.00000E+00  y  0.00000E+00  z  0.00000E+00 mass  0.00000E+00  mx  0.00000E+00  my  0.00000E+00  mz  0.00000E+00
 interface number,     10013,is single surface-resultants are undefined
 interface number,     10013,is single surface-resultants are undefined
 interface number,     10001,is single surface-resultants are undefined
 interface number,     10001,is single surface-resultants are undefined
  slave           2 time 6.48322E-02  x  0.00000E+00  y  0.00000E+00  z  0.00000E+00 mass  0.00000E+00  mx  0.00000E+00  my  0.00000E+00  mz  0.00000E+00
  master          2 time 6.48322E-02  x  0.00000E+00  y  0.00000E+00  z  0.00000E+00 mass  0.00000E+00  mx  0.00000E+00  my  0.00000E+00  mz  0.00000E+00
 interface number,     10013,is single surface-resultants are undefined
 interface number,     10013,is single surface-resultants are undefined
 interface number,     10001,is single surface-resultants are undefined
 interface number,     10001,is single surface-resultants are undefined
  slave           2 time 6.99171E-02  x  0.00000E+00  y  0.00000E+00  z  0.00000E+00 mass  0.00000E+00  mx  0.00000E+00  my  0.00000E+00  mz  0.00000E+00
  master          2 time 6.99171E-02  x  0.00000E+00  y  0.00000E+00  z  0.00000E+00 mass  0.00000E+00  mx  0.00000E+00  my  0.00000E+00  mz  0.00000E+00
 interface number,     10013,is single surface-resultants are undefined
 interface number,     10013,is single surface-resultants are undefined
 interface number,     10001,is single surface-resultants are undefined
 interface number,     10001,is single surface-resultants are undefined
  slave           2 time 7.47901E-02  x  0.00000E+00  y  0.00000E+00  z  0.00000E+00 mass  0.00000E+00  mx  0.00000E+00  my  0.00000E+00  mz  0.00000E+00
  master          2 time 7.47901E-02  x  0.00000E+00  y  0.00000E+00  z  0.00000E+00 mass  0.00000E+00  mx  0.00000E+00  my  0.00000E+00  mz  0.00000E+00
 interface number,     10013,is single surface-resultants are undefined
 interface number,     10013,is single surface-resultants are undefined
 interface number,     10001,is single surface-resultants are undefined
 interface number,     10001,is single surface-resultants are undefined
  slave           2 time 7.98750E-02  x  0.00000E+00  y  0.00000E+00  z  0.00000E+00 mass  0.00000E+00  mx  0.00000E+00  my  0.00000E+00  mz  0.00000E+00
  master          2 time 7.98750E-02  x  0.00000E+00  y  0.00000E+00  z  0.00000E+00 mass  0.00000E+00  mx  0.00000E+00  my  0.00000E+00  mz  0.00000E+00
 interface number,     10013,is single surface-resultants are undefined
 interface number,     10013,is single surface-resultants are undefined
 interface number,     10001,is single surface-resultants are undefined
 interface number,     10001,is single surface-resultants are undefined
  slave           2 time 8.49599E-02  x  0.00000E+00  y  0.00000E+00  z  0.00000E+00 mass  0.00000E+00  mx  0.00000E+00  my  0.00000E+00  mz  0.00000E+00
  master          2 time 8.49599E-02  x  0.00000E+00  y  0.00000E+00  z  0.00000E+00 mass  0.00000E+00  mx  0.00000E+00  my  0.00000E+00  mz  0.00000E+00
 interface number,     10013,is single surface-resultants are undefined
 interface number,     10013,is single surface-resultants are undefined
 interface number,     10001,is single surface-resultants are undefined
 interface number,     10001,is single surface-resultants are undefined
  slave           2 time 8.98329E-02  x  0.00000E+00  y  0.00000E+00  z  0.00000E+00 mass  0.00000E+00  mx  0.00000E+00  my  0.00000E+00  mz  0.00000E+00
  master          2 time 8.98329E-02  x  0.00000E+00  y  0.00000E+00  z  0.00000E+00 mass  0.00000E+00  mx  0.00000E+00  my  0.00000E+00  mz  0.00000E+00
 interface number,     10013,is single surface-resultants are undefined
 interface number,     10013,is single surface-resultants are undefined
 interface number,     10001,is single surface-resultants are undefined
 interface number,     10001,is single surface-resultants are undefined
  slave           2 time 9.49178E-02  x  0.00000E+00  y  0.00000E+00  z  0.00000E+00 mass  0.00000E+00  mx  0.00000E+00  my  0.00000E+00  mz  0.00000E+00
  master          2 time 9.49178E-02  x  0.00000E+00  y  0.00000E+00  z  0.00000E+00 mass  0.00000E+00  mx  0.00000E+00  my  0.00000E+00  mz  0.00000E+00
 interface number,     10013,is single surface-resultants are undefined
 interface number,     10013,is single surface-resultants are undefined
 interface number,     10001,is single surface-resultants are undefined
 interface number,     10001,is single surface-resultants are undefined
  slave           2 time 9.97908E-02  x  0.00000E+00  y  0.00000E+00  z  0.00000E+00 mass  0.00000E+00  mx  0.00000E+00  my  0.00000E+00  mz  0.00000E+00
  master          2 time 9.97908E-02  x  0.00000E+00  y  0.00000E+00  z  0.00000E+00 mass  0.00000E+00  mx  0.00000E+00  my  0.00000E+00  mz  0.00000E+00
 interface number,     10013,is single surface-resultants are undefined
 interface number,     10013,is single surface-resultants are undefined
 interface number,     10001,is single surface-resultants are undefined
 interface number,     10001,is single surface-resultants are undefined
  slave           2 time 1.04876E-01  x  0.00000E+00  y  0.00000E+00  z  0.00000E+00 mass  0.00000E+00  mx  0.00000E+00  my  0.00000E+00  mz  0.00000E+00
  master          2 time 1.04876E-01  x  0.00000E+00  y  0.00000E+00  z  0.00000E+00 mass  0.00000E+00  mx  0.00000E+00  my  0.00000E+00  mz  0.00000E+00
 interface number,     10013,is single surface-resultants are undefined
 interface number,     10013,is single surface-resultants are undefined
 interface number,     10001,is single surface-resultants are undefined
 interface number,     10001,is single surface-resultants are undefined
  slave           2 time 1.09961E-01  x  0.00000E+00  y  0.00000E+00  z  0.00000E+00 mass  0.00000E+00  mx  0.00000E+00  my  0.00000E+00  mz  0.00000E+00
  master          2 time 1.09961E-01  x  0.00000E+00  y  0.00000E+00  z  0.00000E+00 mass  0.00000E+00  mx  0.00000E+00  my  0.00000E+00  mz  0.00000E+00
 interface number,     10013,is single surface-resultants are undefined
 interface number,     10013,is single surface-resultants are undefined
 interface number,     10001,is single surface-resultants are undefined
 interface number,     10001,is single surface-resultants are undefined
  slave           2 time 1.14834E-01  x  0.00000E+00  y  0.00000E+00  z  0.00000E+00 mass  0.00000E+00  mx  0.00000E+00  my  0.00000E+00  mz  0.00000E+00
  master          2 time 1.14834E-01  x  0.00000E+00  y  0.00000E+00  z  0.00000E+00 mass  0.00000E+00  mx  0.00000E+00  my  0.00000E+00  mz  0.00000E+00
 interface number,     10013,is single surface-resultants are undefined
 interface number,     10013,is single surface-resultants are undefined
 interface number,     10001,is single surface-resultants are undefined
 interface number,     10001,is single surface-resultants are undefined
  slave           2 time 1.19918E-01  x  0.00000E+00  y  0.00000E+00  z  0.00000E+00 mass  0.00000E+00  mx  0.00000E+00  my  0.00000E+00  mz  0.00000E+00
  master          2 time 1.19918E-01  x  0.00000E+00  y  0.00000E+00  z  0.00000E+00 mass  0.00000E+00  mx  0.00000E+00  my  0.00000E+00  mz  0.00000E+00
 interface number,     10013,is single surface-resultants are undefined
 interface number,     10013,is single surface-resultants are undefined
 interface number,     10001,is single surface-resultants are undefined
 interface number,     10001,is single surface-resultants are undefined
  slave           2 time 1.24791E-01  x  0.00000E+00  y  0.00000E+00  z  0.00000E+00 mass  0.00000E+00  mx  0.00000E+00  my  0.00000E+00  mz  0.00000E+00
  master          2 time 1.24791E-01  x  0.00000E+00  y  0.00000E+00  z  0.00000E+00 mass  0.00000E+00  mx  0.00000E+00  my  0.00000E+00  mz  0.00000E+00
 interface number,     10013,is single surface-resultants are undefined
 interface number,     10013,is single surface-resultants are undefined
 interface number,     10001,is single surface-resultants are undefined
 interface number,     10001,is single surface-resultants are undefined
  slave           2 time 1.29876E-01  x  0.00000E+00  y  0.00000E+00  z  0.00000E+00 mass  0.00000E+00  mx  0.00000E+00  my  0.00000E+00  mz  0.00000E+00
  master          2 time 1.29876E-01  x  0.00000E+00  y  0.00000E+00  z  0.00000E+00 mass  0.00000E+00  mx  0.00000E+00  my  0.00000E+00  mz  0.00000E+00
 interface number,     10013,is single surface-resultants are undefined
 interface number,     10013,is single surface-resultants are undefined
 interface number,     10001,is single surface-resultants are undefined
 interface number,     10001,is single surface-resultants are undefined
  slave           2 time 1.34961E-01  x  0.00000E+00  y  0.00000E+00  z  0.00000E+00 mass  0.00000E+00  mx  0.00000E+00  my  0.00000E+00  mz  0.00000E+00
  master          2 time 1.34961E-01  x  0.00000E+00  y  0.00000E+00  z  0.00000E+00 mass  0.00000E+00  mx  0.00000E+00  my  0.00000E+00  mz  0.00000E+00
 interface number,     10013,is single surface-resultants are undefined
 interface number,     10013,is single surface-resultants are undefined
 interface number,     10001,is single surface-resultants are undefined
 interface number,     10001,is single surface-resultants are undefined
  slave           2 time 1.39834E-01  x  0.00000E+00  y  0.00000E+00  z  0.00000E+00 mass  0.00000E+00  mx  0.00000E+00  my  0.00000E+00  mz  0.00000E+00
  master          2 time 1.39834E-01  x  0.00000E+00  y  0.00000E+00  z  0.00000E+00 mass  0.00000E+00  mx  0.00000E+00  my  0.00000E+00  mz  0.00000E+00
 interface number,     10013,is single surface-resultants are undefined
 interface number,     10013,is single surface-resultants are undefined
 interface number,     10001,is single surface-resultants are undefined
 interface number,     10001,is single surface-resultants are undefined
  slave           2 time 1.44919E-01  x  0.00000E+00  y  0.00000E+00  z  0.00000E+00 mass  0.00000E+00  mx  0.00000E+00  my  0.00000E+00  mz  0.00000E+00
  master          2 time 1.44919E-01  x  0.00000E+00  y  0.00000E+00  z  0.00000E+00 mass  0.00000E+00  mx  0.00000E+00  my  0.00000E+00  mz  0.00000E+00
 interface number,     10013,is single surface-resultants are undefined
 interface number,     10013,is single surface-resultants are undefined
 interface number,     10001,is single surface-resultants are undefined
 interface number,     10001,is single surface-resultants are undefined
  slave           2 time 1.49792E-01  x  0.00000E+00  y  0.00000E+00  z  0.00000E+00 mass  0.00000E+00  mx  0.00000E+00  my  0.00000E+00  mz  0.00000E+00
  master          2 time 1.49792E-01  x  0.00000E+00  y  0.00000E+00  z  0.00000E+00 mass  0.00000E+00  mx  0.00000E+00  my  0.00000E+00  mz  0.00000E+00
 interface number,     10013,is single surface-resultants are undefined
 interface number,     10013,is single surface-resultants are undefined
 interface number,     10001,is single surface-resultants are undefined
 interface number,     10001,is single surface-resultants are undefined
  slave           2 time 1.54877E-01  x  0.00000E+00  y  0.00000E+00  z  0.00000E+00 mass  0.00000E+00  mx  0.00000E+00  my  0.00000E+00  mz  0.00000E+00
  master          2 time 1.54877E-01  x  0.00000E+00  y  0.00000E+00  z  0.00000E+00 mass  0.00000E+00  mx  0.00000E+00  my  0.00000E+00  mz  0.00000E+00
 interface number,     10013,is single surface-resultants are undefined
 interface number,     10013,is single surface-resultants are undefined
 interface number,     10001,is single surface-resultants are undefined
 interface number,     10001,is single surface-resultants are undefined
  slave           2 time 1.59962E-01  x  0.00000E+00  y  0.00000E+00  z  0.00000E+00 mass  0.00000E+00  mx  0.00000E+00  my  0.00000E+00  mz  0.00000E+00
  master          2 time 1.59962E-01  x  0.00000E+00  y  0.00000E+00  z  0.00000E+00 mass  0.00000E+00  mx  0.00000E+00  my  0.00000E+00  mz  0.00000E+00
 interface number,     10013,is single surface-resultants are undefined
 interface number,     10013,is single surface-resultants are undefined
 interface number,     10001,is single surface-resultants are undefined
 interface number,     10001,is single surface-resultants are undefined
  slave           2 time 1.64834E-01  x  0.00000E+00  y  0.00000E+00  z  0.00000E+00 mass  0.00000E+00  mx  0.00000E+00  my  0.00000E+00  mz  0.00000E+00
  master          2 time 1.64834E-01  x  0.00000E+00  y  0.00000E+00  z  0.00000E+00 mass  0.00000E+00  mx  0.00000E+00  my  0.00000E+00  mz  0.00000E+00
 interface number,     10013,is single surface-resultants are undefined
 interface number,     10013,is single surface-resultants are undefined
 interface number,     10001,is single surface-resultants are undefined
 interface number,     10001,is single surface-resultants are undefined
  slave           2 time 1.69914E-01  x  0.00000E+00  y  0.00000E+00  z  0.00000E+00 mass  0.00000E+00  mx  0.00000E+00  my  0.00000E+00  mz  0.00000E+00
  master          2 time 1.69914E-01  x  0.00000E+00  y  0.00000E+00  z  0.00000E+00 mass  0.00000E+00  mx  0.00000E+00  my  0.00000E+00  mz  0.00000E+00
 interface number,     10013,is single surface-resultants are undefined
 interface number,     10013,is single surface-resultants are undefined
 interface number,     10001,is single surface-resultants are undefined
 interface number,     10001,is single surface-resultants are undefined
  slave           2 time 1.74975E-01  x  0.00000E+00  y  0.00000E+00  z  0.00000E+00 mass  0.00000E+00  mx  0.00000E+00  my  0.00000E+00  mz  0.00000E+00
  master          2 time 1.74975E-01  x  0.00000E+00  y  0.00000E+00  z  0.00000E+00 mass  0.00000E+00  mx  0.00000E+00  my  0.00000E+00  mz  0.00000E+00
 interface number,     10013,is single surface-resultants are undefined
 interface number,     10013,is single surface-resultants are undefined
 interface number,     10001,is single surface-resultants are undefined
 interface number,     10001,is single surface-resultants are undefined
  slave           2 time 1.79937E-01  x  3.79762E-03  y -1.56161E+01  z -3.25827E-04 mass  2.01158E-03  mx -1.49052E+00  my -5.28128E-02  mz -8.60299E-01
  master          2 time 1.79937E-01  x -3.79762E-03  y  1.56161E+01  z  3.25827E-04 mass  2.01158E-03  mx  1.49052E+00  my  5.28128E-02  mz  8.60299E-01
 interface number,     10013,is single surface-resultants are undefined
 interface number,     10013,is single surface-resultants are undefined
 interface number,     10001,is single surface-resultants are undefined
 interface number,     10001,is single surface-resultants are undefined
  slave           2 time 1.84997E-01  x  5.94418E-02  y -2.20077E+01  z  2.10347E-02 mass  1.77453E-03  mx -9.98253E-01  my -5.05695E-02  mz -3.02550E+00
  master          2 time 1.84997E-01  x -5.94418E-02  y  2.20077E+01  z -2.10347E-02 mass  1.77453E-03  mx  9.98253E-01  my  5.05695E-02  mz  3.02550E+00
 interface number,     10013,is single surface-resultants are undefined
 interface number,     10013,is single surface-resultants are undefined
 interface number,     10001,is single surface-resultants are undefined
 interface number,     10001,is single surface-resultants are undefined
  slave           2 time 1.89819E-01  x -8.26638E-02  y -2.59636E+01  z  1.84842E-02 mass  1.72232E-03  mx  3.03441E-01  my  6.61360E-01  mz -1.91328E+00
  master          2 time 1.89819E-01  x  8.26638E-02  y  2.59636E+01  z -1.84842E-02 mass  1.72232E-03  mx -3.03441E-01  my -6.61360E-01  mz  1.91328E+00
 interface number,     10013,is single surface-resultants are undefined
 interface number,     10013,is single surface-resultants are undefined
 interface number,     10001,is single surface-resultants are undefined
 interface number,     10001,is single surface-resultants are undefined
  slave           2 time 1.94846E-01  x -4.65795E-01  y -1.77527E+01  z  8.39515E-02 mass  1.60308E-03  mx  1.27841E+00  my  7.23887E-01  mz  1.16400E+00
  master          2 time 1.94846E-01  x  4.65795E-01  y  1.77527E+01  z -8.39515E-02 mass  1.60308E-03  mx -1.27841E+00  my -7.23887E-01  mz -1.16400E+00
 interface number,     10013,is single surface-resultants are undefined
 interface number,     10013,is single surface-resultants are undefined
 interface number,     10001,is single surface-resultants are undefined
 interface number,     10001,is single surface-resultants are undefined
  slave           2 time 1.99869E-01  x -3.77590E-01  y -1.01161E+01  z  5.78613E-03 mass  1.53607E-03  mx -1.13264E-01  my -1.39446E-01  mz  5.31248E-02
  master          2 time 1.99869E-01  x  3.77590E-01  y  1.01161E+01  z -5.78613E-03 mass  1.53607E-03  mx  1.13264E-01  my  1.39446E-01  mz -5.31248E-02
 interface number,     10013,is single surface-resultants are undefined
 interface number,     10013,is single surface-resultants are undefined
 interface number,     10001,is single surface-resultants are undefined
 interface number,     10001,is single surface-resultants are undefined
  slave           2 time 2.04896E-01  x  4.11423E-02  y -4.69901E+00  z  9.21313E-03 mass  9.07015E-04  mx -3.13674E-01  my -2.98434E-01  mz  8.06266E-01
  master          2 time 2.04896E-01  x -4.11423E-02  y  4.69901E+00  z -9.21313E-03 mass  9.07015E-04  mx  3.13674E-01  my  2.98434E-01  mz -8.06266E-01
 interface number,     10013,is single surface-resultants are undefined
 interface number,     10013,is single surface-resultants are undefined
 interface number,     10001,is single surface-resultants are undefined
 interface number,     10001,is single surface-resultants are undefined
  slave           2 time 2.09923E-01  x -2.78140E-02  y -1.43782E+00  z  1.20345E-02 mass  4.10776E-04  mx  4.31872E-01  my  2.46599E-03  mz  1.30602E+00
  master          2 time 2.09923E-01  x  2.78140E-02  y  1.43782E+00  z -1.20345E-02 mass  4.10776E-04  mx -4.31872E-01  my -2.46599E-03  mz -1.30602E+00
 interface number,     10013,is single surface-resultants are undefined
 interface number,     10013,is single surface-resultants are undefined
 interface number,     10001,is single surface-resultants are undefined
 interface number,     10001,is single surface-resultants are undefined
  slave           2 time 2.14947E-01  x -1.20310E-02  y -2.65284E-01  z  7.79031E-03 mass  0.00000E+00  mx  4.80563E-01  my  5.04211E-02  mz  7.37701E-01
  master          2 time 2.14947E-01  x  1.20310E-02  y  2.65284E-01  z -7.79031E-03 mass  0.00000E+00  mx -4.80563E-01  my -5.04211E-02  mz -7.37701E-01
 interface number,     10013,is single surface-resultants are undefined
 interface number,     10013,is single surface-resultants are undefined
 interface number,     10001,is single surface-resultants are undefined
 interface number,     10001,is single surface-resultants are undefined
  slave           2 time 2.19971E-01  x  0.00000E+00  y  0.00000E+00  z  0.00000E+00 mass  0.00000E+00  mx  0.00000E+00  my  0.00000E+00  mz  0.00000E+00
  master          2 time 2.19971E-01  x  0.00000E+00  y  0.00000E+00  z  0.00000E+00 mass  0.00000E+00  mx  0.00000E+00  my  0.00000E+00  mz  0.00000E+00
 interface number,     10013,is single surface-resultants are undefined
 interface number,     10013,is single surface-resultants are undefined
 interface number,     10001,is single surface-resultants are undefined
 interface number,     10001,is single surface-resultants are undefined
  slave           2 time 2.24799E-01  x  0.00000E+00  y  0.00000E+00  z  0.00000E+00 mass  0.00000E+00  mx  0.00000E+00  my  0.00000E+00  mz  0.00000E+00
  master          2 time 2.24799E-01  x  0.00000E+00  y  0.00000E+00  z  0.00000E+00 mass  0.00000E+00  mx  0.00000E+00  my  0.00000E+00  mz  0.00000E+00
 interface number,     10013,is single surface-resultants are undefined
 interface number,     10013,is single surface-resultants are undefined
 interface number,     10001,is single surface-resultants are undefined
 interface number,     10001,is single surface-resultants are undefined
  slave           2 time 2.29827E-01  x  0.00000E+00  y  0.00000E+00  z  0.00000E+00 mass  0.00000E+00  mx  0.00000E+00  my  0.00000E+00  mz  0.00000E+00
  master          2 time 2.29827E-01  x  0.00000E+00  y  0.00000E+00  z  0.00000E+00 mass  0.00000E+00  mx  0.00000E+00  my  0.00000E+00  mz  0.00000E+00
 interface number,     10013,is single surface-resultants are undefined
 interface number,     10013,is single surface-resultants are undefined
 interface number,     10001,is single surface-resultants are undefined
 interface number,     10001,is single surface-resultants are undefined
  slave           2 time 2.34854E-01  x  0.00000E+00  y  0.00000E+00  z  0.00000E+00 mass  0.00000E+00  mx  0.00000E+00  my  0.00000E+00  mz  0.00000E+00
  master          2 time 2.34854E-01  x  0.00000E+00  y  0.00000E+00  z  0.00000E+00 mass  0.00000E+00  mx  0.00000E+00  my  0.00000E+00  mz  0.00000E+00
 interface number,     10013,is single surface-resultants are undefined
 interface number,     10013,is single surface-resultants are undefined
 interface number,     10001,is single surface-resultants are undefined
 interface number,     10001,is single surface-resultants are undefined
  slave           2 time 2.39879E-01  x  0.00000E+00  y  0.00000E+00  z  0.00000E+00 mass  0.00000E+00  mx  0.00000E+00  my  0.00000E+00  mz  0.00000E+00
  master          2 time 2.39879E-01  x  0.00000E+00  y  0.00000E+00  z  0.00000E+00 mass  0.00000E+00  mx  0.00000E+00  my  0.00000E+00  mz  0.00000E+00
 interface number,     10013,is single surface-resultants are undefined
 interface number,     10013,is single surface-resultants are undefined
 interface number,     10001,is single surface-resultants are undefined
 interface number,     10001,is single surface-resultants are undefined
  slave           2 time 2.44905E-01  x  2.40516E-03  y -1.31034E-01  z -8.12474E-04 mass  3.35959E-04  mx  6.41421E-01  my  1.49907E-02  mz  7.53862E-01
  master          2 time 2.44905E-01  x -2.40516E-03  y  1.31034E-01  z  8.12474E-04 mass  3.35959E-04  mx -6.41421E-01  my -1.49907E-02  mz -7.53862E-01
 interface number,     10013,is single surface-resultants are undefined
 interface number,     10013,is single surface-resultants are undefined
 interface number,     10001,is single surface-resultants are undefined
 interface number,     10001,is single surface-resultants are undefined
  slave           2 time 2.49931E-01  x  6.19157E-02  y -5.72809E+00  z -2.08568E-03 mass  1.43821E-03  mx -8.38885E-02  my -2.21732E-01  mz -5.84646E+00
  master          2 time 2.49931E-01  x -6.19157E-02  y  5.72809E+00  z  2.08568E-03 mass  1.43821E-03  mx  8.38885E-02  my  2.21732E-01  mz  5.84646E+00
 interface number,     10013,is single surface-resultants are undefined
 interface number,     10013,is single surface-resultants are undefined
 interface number,     10001,is single surface-resultants are undefined
 interface number,     10001,is single surface-resultants are undefined
  slave           2 time 2.54953E-01  x  1.48933E-01  y -1.23384E+01  z  7.11343E-03 mass  1.77453E-03  mx  1.00448E+00  my -3.17146E-02  mz -9.26849E+00
  master          2 time 2.54953E-01  x -1.48933E-01  y  1.23384E+01  z -7.11343E-03 mass  1.77453E-03  mx -1.00448E+00  my  3.17146E-02  mz  9.26849E+00
 interface number,     10013,is single surface-resultants are undefined
 interface number,     10013,is single surface-resultants are undefined
 interface number,     10001,is single surface-resultants are undefined
 interface number,     10001,is single surface-resultants are undefined
  slave           2 time 2.59974E-01  x  1.98575E-01  y -1.53494E+01  z  7.82653E-03 mass  1.77453E-03  mx  5.01627E-01  my  3.94091E-01  mz -1.45770E+00
  master          2 time 2.59974E-01  x -1.98575E-01  y  1.53494E+01  z -7.82653E-03 mass  1.77453E-03  mx -5.01627E-01  my -3.94091E-01  mz  1.45770E+00
 interface number,     10013,is single surface-resultants are undefined
 interface number,     10013,is single surface-resultants are undefined
 interface number,     10001,is single surface-resultants are undefined
 interface number,     10001,is single surface-resultants are undefined
  slave           2 time 2.64998E-01  x  1.31770E-01  y -1.82845E+01  z -5.88121E-02 mass  1.77453E-03  mx  1.20364E+00  my  7.03004E-01  mz  7.18041E+00
  master          2 time 2.64998E-01  x -1.31770E-01  y  1.82845E+01  z  5.88121E-02 mass  1.77453E-03  mx -1.20364E+00  my -7.03004E-01  mz -7.18041E+00
 interface number,     10013,is single surface-resultants are undefined
 interface number,     10013,is single surface-resultants are undefined
 interface number,     10001,is single surface-resultants are undefined
 interface number,     10001,is single surface-resultants are undefined
  slave           2 time 2.69819E-01  x -3.02637E-01  y -1.50494E+01  z -6.73913E-02 mass  1.77453E-03  mx  8.17351E-01  my  7.00844E-01  mz  1.17498E+01
  master          2 time 2.69819E-01  x  3.02637E-01  y  1.50494E+01  z  6.73913E-02 mass  1.77453E-03  mx -8.17351E-01  my -7.00844E-01  mz -1.17498E+01
 interface number,     10013,is single surface-resultants are undefined
 interface number,     10013,is single surface-resultants are undefined
 interface number,     10001,is single surface-resultants are undefined
 interface number,     10001,is single surface-resultants are undefined
  slave           2 time 2.74841E-01  x -1.57920E-01  y -8.38695E+00  z -2.48709E-02 mass  1.42985E-03  mx -2.68887E-01  my -7.93560E-02  mz  3.88806E+00
  master          2 time 2.74841E-01  x  1.57920E-01  y  8.38695E+00  z  2.48709E-02 mass  1.42985E-03  mx  2.68887E-01  my  7.93560E-02  mz -3.88806E+00
 interface number,     10013,is single surface-resultants are undefined
 interface number,     10013,is single surface-resultants are undefined
 interface number,     10001,is single surface-resultants are undefined
 interface number,     10001,is single surface-resultants are undefined
  slave           2 time 2.79862E-01  x -6.23507E-02  y -4.28730E+00  z -8.71592E-03 mass  9.11773E-04  mx  8.40713E-02  my -3.95404E-01  mz -4.11289E+00
  master          2 time 2.79862E-01  x  6.23507E-02  y  4.28730E+00  z  8.71592E-03 mass  9.11773E-04  mx -8.40713E-02  my  3.95404E-01  mz  4.11289E+00
 interface number,     10013,is single surface-resultants are undefined
 interface number,     10013,is single surface-resultants are undefined
 interface number,     10001,is single surface-resultants are undefined
 interface number,     10001,is single surface-resultants are undefined
  slave           2 time 2.84892E-01  x  4.16362E-02  y -1.63069E+00  z -2.59975E-03 mass  4.13536E-04  mx -2.10899E-01  my -4.42771E-02  mz -1.85889E+00
  master          2 time 2.84892E-01  x -4.16362E-02  y  1.63069E+00  z  2.59975E-03 mass  4.13536E-04  mx  2.10899E-01  my  4.42771E-02  mz  1.85889E+00
 interface number,     10013,is single surface-resultants are undefined
 interface number,     10013,is single surface-resultants are undefined
 interface number,     10001,is single surface-resultants are undefined
 interface number,     10001,is single surface-resultants are undefined
  slave           2 time 2.89922E-01  x -1.23761E-02  y -1.11606E+00  z  4.39556E-03 mass  5.93180E-04  mx -4.55716E-01  my  8.96422E-02  mz -1.54365E+00
  master          2 time 2.89922E-01  x  1.23761E-02  y  1.11606E+00  z -4.39556E-03 mass  5.93180E-04  mx  4.55716E-01  my -8.96422E-02  mz  1.54365E+00
 interface number,     10013,is single surface-resultants are undefined
 interface number,     10013,is single surface-resultants are undefined
 interface number,     10001,is single surface-resultants are undefined
 interface number,     10001,is single surface-resultants are undefined
  slave           2 time 2.94947E-01  x -4.12979E-02  y -1.94957E+00  z  1.20200E-02 mass  8.05162E-04  mx -9.41601E-01  my  9.51089E-02  mz -1.36447E+00
  master          2 time 2.94947E-01  x  4.12979E-02  y  1.94957E+00  z -1.20200E-02 mass  8.05162E-04  mx  9.41601E-01  my -9.51089E-02  mz  1.36447E+00
 interface number,     10013,is single surface-resultants are undefined
 interface number,     10013,is single surface-resultants are undefined
 interface number,     10001,is single surface-resultants are undefined
 interface number,     10001,is single surface-resultants are undefined
  slave           2 time 2.99971E-01  x -1.52223E-02  y -3.24186E+00  z  6.21690E-04 mass  1.03751E-03  mx -6.99989E-01  my -1.90367E-01  mz  3.68774E+00
  master          2 time 2.99971E-01  x  1.52223E-02  y  3.24186E+00  z -6.21690E-04 mass  1.03751E-03  mx  6.99989E-01  my  1.90367E-01  mz -3.68774E+00
 interface number,     10013,is single surface-resultants are undefined
 interface number,     10013,is single surface-resultants are undefined
 interface number,     10001,is single surface-resultants are undefined
 interface number,     10001,is single surface-resultants are undefined
  slave           2 time 3.04996E-01  x  9.79856E-03  y -4.05780E+00  z -1.15361E-03 mass  1.23890E-03  mx -4.86599E-01  my -3.88304E-01  mz  2.02339E+00
  master          2 time 3.04996E-01  x -9.79856E-03  y  4.05780E+00  z  1.15361E-03 mass  1.23890E-03  mx  4.86599E-01  my  3.88304E-01  mz -2.02339E+00
 interface number,     10013,is single surface-resultants are undefined
 interface number,     10013,is single surface-resultants are undefined
 interface number,     10001,is single surface-resultants are undefined
 interface number,     10001,is single surface-resultants are undefined
  slave           2 time 3.09819E-01  x -1.56829E-01  y -8.42757E+00  z -3.04764E-02 mass  1.58893E-03  mx -4.86870E-01  my -3.95889E-01  mz  5.98977E+00
  master          2 time 3.09819E-01  x  1.56829E-01  y  8.42757E+00  z  3.04764E-02 mass  1.58893E-03  mx  4.86870E-01  my  3.95889E-01  mz -5.98977E+00
 interface number,     10013,is single surface-resultants are undefined
 interface number,     10013,is single surface-resultants are undefined
 interface number,     10001,is single surface-resultants are undefined
 interface number,     10001,is single surface-resultants are undefined
  slave           2 time 3.14840E-01  x -5.96029E-01  y -1.33317E+01  z -4.48148E-02 mass  1.77453E-03  mx -4.07491E-01  my -5.98937E-02  mz -3.80722E+00
  master          2 time 3.14840E-01  x  5.96029E-01  y  1.33317E+01  z  4.48148E-02 mass  1.77453E-03  mx  4.07491E-01  my  5.98937E-02  mz  3.80722E+00
 interface number,     10013,is single surface-resultants are undefined
 interface number,     10013,is single surface-resultants are undefined
 interface number,     10001,is single surface-resultants are undefined
 interface number,     10001,is single surface-resultants are undefined
  slave           2 time 3.19863E-01  x -3.67272E-01  y -1.45972E+01  z -1.01384E-02 mass  1.77453E-03  mx -3.95750E-01  my  3.76194E-01  mz -7.14758E+00
  master          2 time 3.19863E-01  x  3.67272E-01  y  1.45972E+01  z  1.01384E-02 mass  1.77453E-03  mx  3.95750E-01  my -3.76194E-01  mz  7.14758E+00
 interface number,     10013,is single surface-resultants are undefined
 interface number,     10013,is single surface-resultants are undefined
 interface number,     10001,is single surface-resultants are undefined
 interface number,     10001,is single surface-resultants are undefined
  slave           2 time 3.24885E-01  x -3.36774E-02  y -1.39831E+01  z  8.95335E-03 mass  1.77453E-03  mx -2.93031E-01  my  1.35588E-01  mz -3.45527E+00
  master          2 time 3.24885E-01  x  3.36774E-02  y  1.39831E+01  z -8.95335E-03 mass  1.77453E-03  mx  2.93031E-01  my -1.35588E-01  mz  3.45527E+00
 interface number,     10013,is single surface-resultants are undefined
 interface number,     10013,is single surface-resultants are undefined
 interface number,     10001,is single surface-resultants are undefined
 interface number,     10001,is single surface-resultants are undefined
  slave           2 time 3.29915E-01  x -3.15237E-01  y -1.00717E+01  z  1.03093E-02 mass  1.53607E-03  mx -2.58596E-01  my  2.06660E-01  mz  3.32544E+00
  master          2 time 3.29915E-01  x  3.15237E-01  y  1.00717E+01  z -1.03093E-02 mass  1.53607E-03  mx  2.58596E-01  my -2.06660E-01  mz -3.32544E+00
 interface number,     10013,is single surface-resultants are undefined
 interface number,     10013,is single surface-resultants are undefined
 interface number,     10001,is single surface-resultants are undefined
 interface number,     10001,is single surface-resultants are undefined
  slave           2 time 3.34943E-01  x -2.72440E-01  y -6.04464E+00  z  1.14861E-02 mass  1.45355E-03  mx -6.40249E-01  my  4.84496E-01  mz  5.19016E+00
  master          2 time 3.34943E-01  x  2.72440E-01  y  6.04464E+00  z -1.14861E-02 mass  1.45355E-03  mx  6.40249E-01  my -4.84496E-01  mz -5.19016E+00
 interface number,     10013,is single surface-resultants are undefined
 interface number,     10013,is single surface-resultants are undefined
 interface number,     10001,is single surface-resultants are undefined
 interface number,     10001,is single surface-resultants are undefined
  slave           2 time 3.39966E-01  x -2.01618E-02  y -4.01081E+00  z  1.11991E-02 mass  1.21183E-03  mx -7.32946E-01  my  3.48870E-01  mz  1.08765E+00
  master          2 time 3.39966E-01  x  2.01618E-02  y  4.01081E+00  z -1.11991E-02 mass  1.21183E-03  mx  7.32946E-01  my -3.48870E-01  mz -1.08765E+00
 interface number,     10013,is single surface-resultants are undefined
 interface number,     10013,is single surface-resultants are undefined
 interface number,     10001,is single surface-resultants are undefined
 interface number,     10001,is single surface-resultants are undefined
  slave           2 time 3.44994E-01  x -6.30421E-02  y -4.01090E+00  z -4.54951E-03 mass  1.10508E-03  mx -7.40172E-01  my -2.43574E-02  mz -7.92076E-01
  master          2 time 3.44994E-01  x  6.30421E-02  y  4.01090E+00  z  4.54951E-03 mass  1.10508E-03  mx  7.40172E-01  my  2.43574E-02  mz  7.92076E-01
 interface number,     10013,is single surface-resultants are undefined
 interface number,     10013,is single surface-resultants are undefined
 interface number,     10001,is single surface-resultants are undefined
 interface number,     10001,is single surface-resultants are undefined
  slave           2 time 3.49814E-01  x  3.71496E-02  y -4.57858E+00  z  1.68169E-02 mass  1.26746E-03  mx  5.06805E-01  my -4.92227E-01  mz -2.11377E+00
  master          2 time 3.49814E-01  x -3.71496E-02  y  4.57858E+00  z -1.68169E-02 mass  1.26746E-03  mx -5.06805E-01  my  4.92227E-01  mz  2.11377E+00
 interface number,     10013,is single surface-resultants are undefined
 interface number,     10013,is single surface-resultants are undefined
 interface number,     10001,is single surface-resultants are undefined
 interface number,     10001,is single surface-resultants are undefined
  slave           2 time 3.54837E-01  x  3.47553E-02  y -6.78555E+00  z  2.42658E-02 mass  1.45491E-03  mx -2.82605E-01  my -4.00827E-01  mz  1.35186E+00
  master          2 time 3.54837E-01  x -3.47553E-02  y  6.78555E+00  z -2.42658E-02 mass  1.45491E-03  mx  2.82605E-01  my  4.00827E-01  mz -1.35186E+00
 interface number,     10013,is single surface-resultants are undefined
 interface number,     10013,is single surface-resultants are undefined
 interface number,     10001,is single surface-resultants are undefined
 interface number,     10001,is single surface-resultants are undefined
  slave           2 time 3.59864E-01  x -1.68254E-01  y -1.04698E+01  z  4.44341E-03 mass  1.77453E-03  mx  4.86025E-02  my  2.64423E-01  mz -4.92115E+00
  master          2 time 3.59864E-01  x  1.68254E-01  y  1.04698E+01  z -4.44341E-03 mass  1.77453E-03  mx -4.86025E-02  my -2.64423E-01  mz  4.92115E+00
 interface number,     10013,is single surface-resultants are undefined
 interface number,     10013,is single surface-resultants are undefined
 interface number,     10001,is single surface-resultants are undefined
 interface number,     10001,is single surface-resultants are undefined
  slave           2 time 3.64885E-01  x  1.49564E-01  y -1.29874E+01  z  2.70575E-03 mass  1.77453E-03  mx  2.31006E-01  my  7.96563E-01  mz -7.87069E+00
  master          2 time 3.64885E-01  x -1.49564E-01  y  1.29874E+01  z -2.70575E-03 mass  1.77453E-03  mx -2.31006E-01  my -7.96563E-01  mz  7.87069E+00
 interface number,     10013,is single surface-resultants are undefined
 interface number,     10013,is single surface-resultants are undefined
 interface number,     10001,is single surface-resultants are undefined
 interface number,     10001,is single surface-resultants are undefined
  slave           2 time 3.69907E-01  x  8.07811E-01  y -1.47500E+01  z -2.09256E-02 mass  1.77453E-03  mx  9.03875E-01  my  6.74784E-01  mz -3.45990E+00
  master          2 time 3.69907E-01  x -8.07811E-01  y  1.47500E+01  z  2.09256E-02 mass  1.77453E-03  mx -9.03875E-01  my -6.74784E-01  mz  3.45990E+00
 interface number,     10013,is single surface-resultants are undefined
 interface number,     10013,is single surface-resultants are undefined
 interface number,     10001,is single surface-resultants are undefined
 interface number,     10001,is single surface-resultants are undefined
  slave           2 time 3.74951E-01  x  6.34024E-01  y -1.30761E+01  z  1.83918E-02 mass  1.77453E-03  mx  1.01634E+00  my -6.76722E-02  mz  3.35756E+00
  master          2 time 3.74951E-01  x -6.34024E-01  y  1.30761E+01  z -1.83918E-02 mass  1.77453E-03  mx -1.01634E+00  my  6.76722E-02  mz -3.35756E+00
 interface number,     10013,is single surface-resultants are undefined
 interface number,     10013,is single surface-resultants are undefined
 interface number,     10001,is single surface-resultants are undefined
 interface number,     10001,is single surface-resultants are undefined
  slave           2 time 3.79971E-01  x  1.37132E-01  y -1.01677E+01  z  8.53030E-03 mass  1.72232E-03  mx  1.14633E+00  my -4.85242E-01  mz  2.73121E+00
  master          2 time 3.79971E-01  x -1.37132E-01  y  1.01677E+01  z -8.53030E-03 mass  1.72232E-03  mx -1.14633E+00  my  4.85242E-01  mz -2.73121E+00
 interface number,     10013,is single surface-resultants are undefined
 interface number,     10013,is single surface-resultants are undefined
 interface number,     10001,is single surface-resultants are undefined
 interface number,     10001,is single surface-resultants are undefined
  slave           2 time 3.84998E-01  x -1.58614E-01  y -8.32082E+00  z -7.16882E-05 mass  1.56205E-03  mx  6.43983E-01  my -4.27712E-01  mz -2.31395E+00
  master          2 time 3.84998E-01  x  1.58614E-01  y  8.32082E+00  z  7.16882E-05 mass  1.56205E-03  mx -6.43983E-01  my  4.27712E-01  mz  2.31395E+00
 interface number,     10013,is single surface-resultants are undefined
 interface number,     10013,is single surface-resultants are undefined
 interface number,     10001,is single surface-resultants are undefined
 interface number,     10001,is single surface-resultants are undefined
  slave           2 time 3.89818E-01  x  3.32996E-02  y -7.11807E+00  z  2.24406E-02 mass  1.50926E-03  mx  9.31368E-01  my  8.71863E-03  mz -5.18232E+00
  master          2 time 3.89818E-01  x -3.32996E-02  y  7.11807E+00  z -2.24406E-02 mass  1.50926E-03  mx -9.31368E-01  my -8.71863E-03  mz  5.18232E+00
 interface number,     10013,is single surface-resultants are undefined
 interface number,     10013,is single surface-resultants are undefined
 interface number,     10001,is single surface-resultants are undefined
 interface number,     10001,is single surface-resultants are undefined
  slave           2 time 3.94841E-01  x -2.06135E-02  y -6.47567E+00  z  5.42975E-03 mass  1.53607E-03  mx  7.00278E-01  my  4.55159E-01  mz -1.34676E+00
  master          2 time 3.94841E-01  x  2.06135E-02  y  6.47567E+00  z -5.42975E-03 mass  1.53607E-03  mx -7.00278E-01  my -4.55159E-01  mz  1.34676E+00
 interface number,     10013,is single surface-resultants are undefined
 interface number,     10013,is single surface-resultants are undefined
 interface number,     10001,is single surface-resultants are undefined
 interface number,     10001,is single surface-resultants are undefined
  slave           2 time 3.99874E-01  x -6.07461E-01  y -8.34282E+00  z -2.42934E-02 mass  1.67009E-03  mx  4.75578E-01  my  1.80551E-01  mz  5.57423E+00
  master          2 time 3.99874E-01  x  6.07461E-01  y  8.34282E+00  z  2.42934E-02 mass  1.67009E-03  mx -4.75578E-01  my -1.80551E-01  mz -5.57423E+00
 interface number,     10013,is single surface-resultants are undefined
 interface number,     10013,is single surface-resultants are undefined
 interface number,     10001,is single surface-resultants are undefined
 interface number,     10001,is single surface-resultants are undefined
  slave           2 time 4.04894E-01  x -9.00624E-01  y -1.12552E+01  z -1.59720E-02 mass  1.77453E-03  mx  1.84001E-01  my -3.07255E-01  mz  7.19536E+00
  master          2 time 4.04894E-01  x  9.00624E-01  y  1.12552E+01  z  1.59720E-02 mass  1.77453E-03  mx -1.84001E-01  my  3.07255E-01  mz -7.19536E+00
 interface number,     10013,is single surface-resultants are undefined
 interface number,     10013,is single surface-resultants are undefined
 interface number,     10001,is single surface-resultants are undefined
 interface number,     10001,is single surface-resultants are undefined
  slave           2 time 4.09913E-01  x -5.42646E-01  y -1.17871E+01  z -1.18715E-02 mass  1.77453E-03  mx  3.73710E-02  my -4.45872E-01  mz  2.03218E+00
  master          2 time 4.09913E-01  x  5.42646E-01  y  1.17871E+01  z  1.18715E-02 mass  1.77453E-03  mx -3.73710E-02  my  4.45872E-01  mz -2.03218E+00
 interface number,     10013,is single surface-resultants are undefined
 interface number,     10013,is single surface-resultants are undefined
 interface number,     10001,is single surface-resultants are undefined
 interface number,     10001,is single surface-resultants are undefined
  slave           2 time 4.14938E-01  x -3.23375E-01  y -1.21600E+01  z -2.04785E-02 mass  1.77453E-03  mx -3.59248E-02  my -1.57125E-01  mz -2.08754E+00
  master          2 time 4.14938E-01  x  3.23375E-01  y  1.21600E+01  z  2.04785E-02 mass  1.77453E-03  mx  3.59248E-02  my  1.57125E-01  mz  2.08754E+00
 interface number,     10013,is single surface-resultants are undefined
 interface number,     10013,is single surface-resultants are undefined
 interface number,     10001,is single surface-resultants are undefined
 interface number,     10001,is single surface-resultants are undefined
  slave           2 time 4.19981E-01  x -6.45216E-02  y -1.14517E+01  z -2.29045E-02 mass  1.72232E-03  mx -5.23554E-01  my  3.14304E-01  mz -2.73384E+00
  master          2 time 4.19981E-01  x  6.45216E-02  y  1.14517E+01  z  2.29045E-02 mass  1.72232E-03  mx  5.23554E-01  my -3.14304E-01  mz  2.73384E+00
 interface number,     10013,is single surface-resultants are undefined
 interface number,     10013,is single surface-resultants are undefined
 interface number,     10001,is single surface-resultants are undefined
 interface number,     10001,is single surface-resultants are undefined
  slave           2 time 4.24804E-01  x  3.50222E-01  y -1.01444E+01  z -1.75031E-02 mass  1.67009E-03  mx -1.01810E+00  my  3.52467E-01  mz -1.40282E+00
  master          2 time 4.24804E-01  x -3.50222E-01  y  1.01444E+01  z  1.75031E-02 mass  1.67009E-03  mx  1.01810E+00  my -3.52467E-01  mz  1.40282E+00
 interface number,     10013,is single surface-resultants are undefined
 interface number,     10013,is single surface-resultants are undefined
 interface number,     10001,is single surface-resultants are undefined
 interface number,     10001,is single surface-resultants are undefined
  slave           2 time 4.29824E-01  x  3.78154E-01  y -9.68603E+00  z -1.99955E-02 mass  1.67009E-03  mx -5.75094E-01  my  7.53777E-02  mz -3.80705E+00
  master          2 time 4.29824E-01  x -3.78154E-01  y  9.68603E+00  z  1.99955E-02 mass  1.67009E-03  mx  5.75094E-01  my -7.53777E-02  mz  3.80705E+00
 interface number,     10013,is single surface-resultants are undefined
 interface number,     10013,is single surface-resultants are undefined
 interface number,     10001,is single surface-resultants are undefined
 interface number,     10001,is single surface-resultants are undefined
  slave           2 time 4.34846E-01  x  3.55886E-01  y -9.39902E+00  z -2.17442E-02 mass  1.67009E-03  mx -5.11320E-02  my  1.33351E-01  mz -4.48175E+00
  master          2 time 4.34846E-01  x -3.55886E-01  y  9.39902E+00  z  2.17442E-02 mass  1.67009E-03  mx  5.11320E-02  my -1.33351E-01  mz  4.48175E+00
 interface number,     10013,is single surface-resultants are undefined
 interface number,     10013,is single surface-resultants are undefined
 interface number,     10001,is single surface-resultants are undefined
 interface number,     10001,is single surface-resultants are undefined
  slave           2 time 4.39873E-01  x  9.19174E-02  y -1.04495E+01  z  6.49285E-03 mass  1.67009E-03  mx -1.81488E-01  my  3.42430E-01  mz -2.61644E+00
  master          2 time 4.39873E-01  x -9.19174E-02  y  1.04495E+01  z -6.49285E-03 mass  1.67009E-03  mx  1.81488E-01  my -3.42430E-01  mz  2.61644E+00
 interface number,     10013,is single surface-resultants are undefined
 interface number,     10013,is single surface-resultants are undefined
 interface number,     10001,is single surface-resultants are undefined
 interface number,     10001,is single surface-resultants are undefined
  slave           2 time 4.44897E-01  x  1.76720E-01  y -1.23535E+01  z -7.97739E-03 mass  1.77453E-03  mx -2.72428E-01  my  4.99908E-01  mz  1.86865E+00
  master          2 time 4.44897E-01  x -1.76720E-01  y  1.23535E+01  z  7.97739E-03 mass  1.77453E-03  mx  2.72428E-01  my -4.99908E-01  mz -1.86865E+00
 interface number,     10013,is single surface-resultants are undefined
 interface number,     10013,is single surface-resultants are undefined
 interface number,     10001,is single surface-resultants are undefined
 interface number,     10001,is single surface-resultants are undefined
  slave           2 time 4.49919E-01  x  3.64437E-03  y -1.34945E+01  z  1.45028E-04 mass  1.77453E-03  mx -2.20119E-01  my  3.15473E-01  mz  6.17450E-01
  master          2 time 4.49919E-01  x -3.64437E-03  y  1.34945E+01  z -1.45028E-04 mass  1.77453E-03  mx  2.20119E-01  my -3.15473E-01  mz -6.17450E-01
 interface number,     10013,is single surface-resultants are undefined
 interface number,     10013,is single surface-resultants are undefined
 interface number,     10001,is single surface-resultants are undefined
 interface number,     10001,is single surface-resultants are undefined
  slave           2 time 4.54950E-01  x -4.74717E-01  y -1.30128E+01  z -9.14365E-04 mass  1.69330E-03  mx -4.82776E-01  my  4.58317E-01  mz -5.78396E+00
  master          2 time 4.54950E-01  x  4.74717E-01  y  1.30128E+01  z  9.14365E-04 mass  1.69330E-03  mx  4.82776E-01  my -4.58317E-01  mz  5.78396E+00
 interface number,     10013,is single surface-resultants are undefined
 interface number,     10013,is single surface-resultants are undefined
 interface number,     10001,is single surface-resultants are undefined
 interface number,     10001,is single surface-resultants are undefined
  slave           2 time 4.59978E-01  x -6.76834E-01  y -1.23563E+01  z  1.92216E-02 mass  1.69330E-03  mx -3.95928E-02  my  1.75068E-01  mz -8.53486E+00
  master          2 time 4.59978E-01  x  6.76834E-01  y  1.23563E+01  z -1.92216E-02 mass  1.69330E-03  mx  3.95928E-02  my -1.75068E-01  mz  8.53486E+00
 interface number,     10013,is single surface-resultants are undefined
 interface number,     10013,is single surface-resultants are undefined
 interface number,     10001,is single surface-resultants are undefined
 interface number,     10001,is single surface-resultants are undefined
  slave           2 time 4.64810E-01  x -4.84680E-01  y -1.13616E+01  z  1.73125E-02 mass  1.67009E-03  mx -5.06477E-02  my  3.32640E-01  mz -4.76011E+00
  master          2 time 4.64810E-01  x  4.84680E-01  y  1.13616E+01  z -1.73125E-02 mass  1.67009E-03  mx  5.06477E-02  my -3.32640E-01  mz  4.76011E+00
 interface number,     10013,is single surface-resultants are undefined
 interface number,     10013,is single surface-resultants are undefined
 interface number,     10001,is single surface-resultants are undefined
 interface number,     10001,is single surface-resultants are undefined
  slave           2 time 4.69835E-01  x -2.92902E-01  y -1.07643E+01  z  3.79748E-03 mass  1.67009E-03  mx -4.46104E-01  my  4.92096E-01  mz -3.92702E-01
  master          2 time 4.69835E-01  x  2.92902E-01  y  1.07643E+01  z -3.79748E-03 mass  1.67009E-03  mx  4.46104E-01  my -4.92096E-01  mz  3.92702E-01
 interface number,     10013,is single surface-resultants are undefined
 interface number,     10013,is single surface-resultants are undefined
 interface number,     10001,is single surface-resultants are undefined
 interface number,     10001,is single surface-resultants are undefined
  slave           2 time 4.74858E-01  x -5.49575E-02  y -1.02534E+01  z -3.25745E-02 mass  1.67009E-03  mx  2.60516E-01  my -1.04053E-01  mz  1.25995E-01
  master          2 time 4.74858E-01  x  5.49575E-02  y  1.02534E+01  z  3.25745E-02 mass  1.67009E-03  mx -2.60516E-01  my  1.04053E-01  mz -1.25995E-01
 interface number,     10013,is single surface-resultants are undefined
 interface number,     10013,is single surface-resultants are undefined
 interface number,     10001,is single surface-resultants are undefined
 interface number,     10001,is single surface-resultants are undefined
  slave           2 time 4.79874E-01  x  6.86364E-02  y -9.38609E+00  z -4.01818E-02 mass  1.58893E-03  mx  1.44180E+00  my -6.60581E-01  mz  2.17685E+00
  master          2 time 4.79874E-01  x -6.86364E-02  y  9.38609E+00  z  4.01818E-02 mass  1.58893E-03  mx -1.44180E+00  my  6.60581E-01  mz -2.17685E+00
 interface number,     10013,is single surface-resultants are undefined
 interface number,     10013,is single surface-resultants are undefined
 interface number,     10001,is single surface-resultants are undefined
 interface number,     10001,is single surface-resultants are undefined
  slave           2 time 4.84899E-01  x -2.91447E-02  y -9.21069E+00  z -1.94041E-02 mass  1.58893E-03  mx  9.88369E-01  my -6.68716E-01  mz  2.53200E+00
  master          2 time 4.84899E-01  x  2.91447E-02  y  9.21069E+00  z  1.94041E-02 mass  1.58893E-03  mx -9.88369E-01  my  6.68716E-01  mz -2.53200E+00
 interface number,     10013,is single surface-resultants are undefined
 interface number,     10013,is single surface-resultants are undefined
 interface number,     10001,is single surface-resultants are undefined
 interface number,     10001,is single surface-resultants are undefined
  slave           2 time 4.89922E-01  x -2.11390E-01  y -1.05258E+01  z -1.99302E-02 mass  1.67009E-03  mx  5.75787E-01  my -5.23496E-01  mz  4.87458E-01
  master          2 time 4.89922E-01  x  2.11390E-01  y  1.05258E+01  z  1.99302E-02 mass  1.67009E-03  mx -5.75787E-01  my  5.23496E-01  mz -4.87458E-01
 interface number,     10013,is single surface-resultants are undefined
 interface number,     10013,is single surface-resultants are undefined
 interface number,     10001,is single surface-resultants are undefined
 interface number,     10001,is single surface-resultants are undefined
  slave           2 time 4.94942E-01  x -4.05813E-02  y -1.24658E+01  z -1.41475E-02 mass  1.77453E-03  mx  8.13097E-01  my -7.23676E-01  mz -3.81803E+00
  master          2 time 4.94942E-01  x  4.05813E-02  y  1.24658E+01  z  1.41475E-02 mass  1.77453E-03  mx -8.13097E-01  my  7.23676E-01  mz  3.81803E+00
 interface number,     10013,is single surface-resultants are undefined
 interface number,     10013,is single surface-resultants are undefined
 interface number,     10001,is single surface-resultants are undefined
 interface number,     10001,is single surface-resultants are undefined
  slave           2 time 4.99960E-01  x  4.57705E-01  y -1.45338E+01  z  9.91068E-03 mass  1.77453E-03  mx  1.16483E+00  my -4.47158E-01  mz -3.74144E+00
  master          2 time 4.99960E-01  x -4.57705E-01  y  1.45338E+01  z -9.91068E-03 mass  1.77453E-03  mx -1.16483E+00  my  4.47158E-01  mz  3.74144E+00
 interface number,     10013,is single surface-resultants are undefined
 interface number,     10013,is single surface-resultants are undefined
 interface number,     10001,is single surface-resultants are undefined
 interface number,     10001,is single surface-resultants are undefined
  slave           2 time 5.04983E-01  x  5.04693E-01  y -1.47198E+01  z -1.47045E-02 mass  1.77453E-03  mx  8.01784E-01  my -1.95629E-01  mz -4.13286E+00
  master          2 time 5.04983E-01  x -5.04693E-01  y  1.47198E+01  z  1.47045E-02 mass  1.77453E-03  mx -8.01784E-01  my  1.95629E-01  mz  4.13286E+00
 interface number,     10013,is single surface-resultants are undefined
 interface number,     10013,is single surface-resultants are undefined
 interface number,     10001,is single surface-resultants are undefined
 interface number,     10001,is single surface-resultants are undefined
  slave           2 time 5.09815E-01  x -9.14805E-02  y -1.38416E+01  z -4.79271E-02 mass  1.77453E-03  mx  5.80970E-01  my  4.44697E-01  mz  2.10003E+00
  master          2 time 5.09815E-01  x  9.14805E-02  y  1.38416E+01  z  4.79271E-02 mass  1.77453E-03  mx -5.80970E-01  my -4.44697E-01  mz -2.10003E+00
 interface number,     10013,is single surface-resultants are undefined
 interface number,     10013,is single surface-resultants are undefined
 interface number,     10001,is single surface-resultants are undefined
 interface number,     10001,is single surface-resultants are undefined
  slave           2 time 5.14851E-01  x -4.47091E-01  y -1.26362E+01  z -2.09205E-02 mass  1.72232E-03  mx  7.56230E-01  my  3.30934E-01  mz  6.29057E+00
  master          2 time 5.14851E-01  x  4.47091E-01  y  1.26362E+01  z  2.09205E-02 mass  1.72232E-03  mx -7.56230E-01  my -3.30934E-01  mz -6.29057E+00
 interface number,     10013,is single surface-resultants are undefined
 interface number,     10013,is single surface-resultants are undefined
 interface number,     10001,is single surface-resultants are undefined
 interface number,     10001,is single surface-resultants are undefined
  slave           2 time 5.19868E-01  x -3.47174E-01  y -1.15722E+01  z  1.98008E-02 mass  1.72232E-03  mx  8.24206E-01  my  4.62813E-01  mz  6.44861E+00
  master          2 time 5.19868E-01  x  3.47174E-01  y  1.15722E+01  z -1.98008E-02 mass  1.72232E-03  mx -8.24206E-01  my -4.62813E-01  mz -6.44861E+00
 interface number,     10013,is single surface-resultants are undefined
 interface number,     10013,is single surface-resultants are undefined
 interface number,     10001,is single surface-resultants are undefined
 interface number,     10001,is single surface-resultants are undefined
  slave           2 time 5.24888E-01  x -2.38098E-01  y -1.12298E+01  z -3.02080E-03 mass  1.72232E-03  mx  3.03523E-01  my  2.54502E-01  mz  2.57080E+00
  master          2 time 5.24888E-01  x  2.38098E-01  y  1.12298E+01  z  3.02080E-03 mass  1.72232E-03  mx -3.03523E-01  my -2.54502E-01  mz -2.57080E+00
 interface number,     10013,is single surface-resultants are undefined
 interface number,     10013,is single surface-resultants are undefined
 interface number,     10001,is single surface-resultants are undefined
 interface number,     10001,is single surface-resultants are undefined
  slave           2 time 5.29920E-01  x -6.23775E-01  y -1.17549E+01  z -3.54501E-02 mass  1.77453E-03  mx  3.62566E-01  my -5.20250E-02  mz -9.77345E-01
  master          2 time 5.29920E-01  x  6.23775E-01  y  1.17549E+01  z  3.54501E-02 mass  1.77453E-03  mx -3.62566E-01  my  5.20250E-02  mz  9.77345E-01
 interface number,     10013,is single surface-resultants are undefined
 interface number,     10013,is single surface-resultants are undefined
 interface number,     10001,is single surface-resultants are undefined
 interface number,     10001,is single surface-resultants are undefined
  slave           2 time 5.34943E-01  x -1.20741E+00  y -1.30081E+01  z -3.53529E-02 mass  1.77453E-03  mx  1.70974E-01  my -1.28303E-01  mz -2.42498E+00
  master          2 time 5.34943E-01  x  1.20741E+00  y  1.30081E+01  z  3.53529E-02 mass  1.77453E-03  mx -1.70974E-01  my  1.28303E-01  mz  2.42498E+00
 interface number,     10013,is single surface-resultants are undefined
 interface number,     10013,is single surface-resultants are undefined
 interface number,     10001,is single surface-resultants are undefined
 interface number,     10001,is single surface-resultants are undefined
  slave           2 time 5.39962E-01  x -1.07270E+00  y -1.39245E+01  z -9.19413E-03 mass  1.77453E-03  mx -6.82961E-02  my -1.21394E-01  mz -1.22693E+00
  master          2 time 5.39962E-01  x  1.07270E+00  y  1.39245E+01  z  9.19413E-03 mass  1.77453E-03  mx  6.82961E-02  my  1.21394E-01  mz  1.22693E+00
 interface number,     10013,is single surface-resultants are undefined
 interface number,     10013,is single surface-resultants are undefined
 interface number,     10001,is single surface-resultants are undefined
 interface number,     10001,is single surface-resultants are undefined
  slave           2 time 5.44987E-01  x -2.57005E-01  y -1.40862E+01  z  3.18169E-03 mass  1.77453E-03  mx -1.58573E-01  my -2.40826E-01  mz  3.06268E+00
  master          2 time 5.44987E-01  x  2.57005E-01  y  1.40862E+01  z -3.18169E-03 mass  1.77453E-03  mx  1.58573E-01  my  2.40826E-01  mz -3.06268E+00
 interface number,     10013,is single surface-resultants are undefined
 interface number,     10013,is single surface-resultants are undefined
 interface number,     10001,is single surface-resultants are undefined
 interface number,     10001,is single surface-resultants are undefined
  slave           2 time 5.49821E-01  x  3.11322E-01  y -1.34105E+01  z -1.41432E-02 mass  1.77453E-03  mx  2.76615E-01  my  3.97086E-02  mz  5.18335E+00
  master          2 time 5.49821E-01  x -3.11322E-01  y  1.34105E+01  z  1.41432E-02 mass  1.77453E-03  mx -2.76615E-01  my -3.97086E-02  mz -5.18335E+00
 interface number,     10013,is single surface-resultants are undefined
 interface number,     10013,is single surface-resultants are undefined
 interface number,     10001,is single surface-resultants are undefined
 interface number,     10001,is single surface-resultants are undefined
  slave           2 time 5.54842E-01  x  5.92204E-01  y -1.27560E+01  z -2.08418E-02 mass  1.77453E-03  mx  5.57699E-02  my  1.30239E-01  mz  8.04530E-01
  master          2 time 5.54842E-01  x -5.92204E-01  y  1.27560E+01  z  2.08418E-02 mass  1.77453E-03  mx -5.57699E-02  my -1.30239E-01  mz -8.04530E-01
 interface number,     10013,is single surface-resultants are undefined
 interface number,     10013,is single surface-resultants are undefined
 interface number,     10001,is single surface-resultants are undefined
 interface number,     10001,is single surface-resultants are undefined
  slave           2 time 5.59861E-01  x  3.57310E-01  y -1.25659E+01  z -6.07178E-03 mass  1.77453E-03  mx  4.62063E-03  my  3.50258E-01  mz -3.67315E+00
  master          2 time 5.59861E-01  x -3.57310E-01  y  1.25659E+01  z  6.07178E-03 mass  1.77453E-03  mx -4.62063E-03  my -3.50258E-01  mz  3.67315E+00
 interface number,     10013,is single surface-resultants are undefined
 interface number,     10013,is single surface-resultants are undefined
 interface number,     10001,is single surface-resultants are undefined
 interface number,     10001,is single surface-resultants are undefined
  slave           2 time 5.64886E-01  x  2.30297E-01  y -1.29398E+01  z  9.19705E-03 mass  1.77453E-03  mx  9.89778E-03  my  2.95690E-02  mz -6.70059E+00
  master          2 time 5.64886E-01  x -2.30297E-01  y  1.29398E+01  z -9.19705E-03 mass  1.77453E-03  mx -9.89778E-03  my -2.95690E-02  mz  6.70059E+00
 interface number,     10013,is single surface-resultants are undefined
 interface number,     10013,is single surface-resultants are undefined
 interface number,     10001,is single surface-resultants are undefined
 interface number,     10001,is single surface-resultants are undefined
  slave           2 time 5.69917E-01  x  2.88290E-02  y -1.36501E+01  z  2.55481E-03 mass  1.77453E-03  mx -2.46735E-01  my -5.01783E-02  mz -4.16043E+00
  master          2 time 5.69917E-01  x -2.88290E-02  y  1.36501E+01  z -2.55481E-03 mass  1.77453E-03  mx  2.46735E-01  my  5.01783E-02  mz  4.16043E+00
 interface number,     10013,is single surface-resultants are undefined
 interface number,     10013,is single surface-resultants are undefined
 interface number,     10001,is single surface-resultants are undefined
 interface number,     10001,is single surface-resultants are undefined
  slave           2 time 5.74951E-01  x -1.28770E-01  y -1.42306E+01  z  3.02133E-02 mass  1.77453E-03  mx -2.77326E-01  my  1.65085E-01  mz  6.31393E-01
  master          2 time 5.74951E-01  x  1.28770E-01  y  1.42306E+01  z -3.02133E-02 mass  1.77453E-03  mx  2.77326E-01  my -1.65085E-01  mz -6.31393E-01
 interface number,     10013,is single surface-resultants are undefined
 interface number,     10013,is single surface-resultants are undefined
 interface number,     10001,is single surface-resultants are undefined
 interface number,     10001,is single surface-resultants are undefined
  slave           2 time 5.79975E-01  x -2.17812E-01  y -1.40353E+01  z  3.16152E-02 mass  1.77453E-03  mx -4.16212E-01  my  6.38778E-01  mz  1.45301E+00
  master          2 time 5.79975E-01  x  2.17812E-01  y  1.40353E+01  z -3.16152E-02 mass  1.77453E-03  mx  4.16212E-01  my -6.38778E-01  mz -1.45301E+00
 interface number,     10013,is single surface-resultants are undefined
 interface number,     10013,is single surface-resultants are undefined
 interface number,     10001,is single surface-resultants are undefined
 interface number,     10001,is single surface-resultants are undefined
  slave           2 time 5.85000E-01  x -3.26582E-01  y -1.34914E+01  z  1.29530E-02 mass  1.77453E-03  mx  1.98631E-01  my  3.90107E-01  mz  8.14190E-01
  master          2 time 5.85000E-01  x  3.26582E-01  y  1.34914E+01  z -1.29530E-02 mass  1.77453E-03  mx -1.98631E-01  my -3.90107E-01  mz -8.14190E-01
 interface number,     10013,is single surface-resultants are undefined
 interface number,     10013,is single surface-resultants are undefined
 interface number,     10001,is single surface-resultants are undefined
 interface number,     10001,is single surface-resultants are undefined
  slave           2 time 5.89828E-01  x -3.39275E-01  y -1.36544E+01  z -1.22192E-02 mass  1.77453E-03  mx  3.68291E-01  my  3.78667E-01  mz -1.95121E+00
  master          2 time 5.89828E-01  x  3.39275E-01  y  1.36544E+01  z  1.22192E-02 mass  1.77453E-03  mx -3.68291E-01  my -3.78667E-01  mz  1.95121E+00
 interface number,     10013,is single surface-resultants are undefined
 interface number,     10013,is single surface-resultants are undefined
 interface number,     10001,is single surface-resultants are undefined
 interface number,     10001,is single surface-resultants are undefined
  slave           2 time 5.94849E-01  x -2.03330E-01  y -1.35788E+01  z -2.27932E-02 mass  1.77453E-03  mx  2.88400E-01  my  2.02520E-01  mz -2.74498E+00
  master          2 time 5.94849E-01  x  2.03330E-01  y  1.35788E+01  z  2.27932E-02 mass  1.77453E-03  mx -2.88400E-01  my -2.02520E-01  mz  2.74498E+00
 interface number,     10013,is single surface-resultants are undefined
 interface number,     10013,is single surface-resultants are undefined
 interface number,     10001,is single surface-resultants are undefined
 interface number,     10001,is single surface-resultants are undefined
  slave           2 time 5.99866E-01  x  1.76583E-01  y -1.34443E+01  z -4.90344E-03 mass  1.77453E-03  mx  1.18331E-01  my -9.94425E-02  mz -2.61799E+00
  master          2 time 5.99866E-01  x -1.76583E-01  y  1.34443E+01  z  4.90344E-03 mass  1.77453E-03  mx -1.18331E-01  my  9.94425E-02  mz  2.61799E+00
 interface number,     10013,is single surface-resultants are undefined
 interface number,     10013,is single surface-resultants are undefined
 interface number,     10001,is single surface-resultants are undefined
 interface number,     10001,is single surface-resultants are undefined
  slave           2 time 6.04889E-01  x  3.92381E-01  y -1.32752E+01  z  2.28044E-02 mass  1.77453E-03  mx  4.08300E-01  my -1.75691E-02  mz -3.87823E+00
  master          2 time 6.04889E-01  x -3.92381E-01  y  1.32752E+01  z -2.28044E-02 mass  1.77453E-03  mx -4.08300E-01  my  1.75691E-02  mz  3.87823E+00
 interface number,     10013,is single surface-resultants are undefined
 interface number,     10013,is single surface-resultants are undefined
 interface number,     10001,is single surface-resultants are undefined
 interface number,     10001,is single surface-resultants are undefined
  slave           2 time 6.09910E-01  x  2.71359E-01  y -1.34971E+01  z  4.46202E-02 mass  1.77453E-03  mx  9.44985E-01  my  1.73343E-01  mz -3.68196E-01
  master          2 time 6.09910E-01  x -2.71359E-01  y  1.34971E+01  z -4.46202E-02 mass  1.77453E-03  mx -9.44985E-01  my -1.73343E-01  mz  3.68196E-01
 interface number,     10013,is single surface-resultants are undefined
 interface number,     10013,is single surface-resultants are undefined
 interface number,     10001,is single surface-resultants are undefined
 interface number,     10001,is single surface-resultants are undefined
  slave           2 time 6.14932E-01  x -1.58536E-02  y -1.43956E+01  z -1.24201E-03 mass  1.77453E-03  mx  9.46896E-01  my  6.97882E-02  mz  2.88603E-01
  master          2 time 6.14932E-01  x  1.58536E-02  y  1.43956E+01  z  1.24201E-03 mass  1.77453E-03  mx -9.46896E-01  my -6.97882E-02  mz -2.88603E-01
 interface number,     10013,is single surface-resultants are undefined
 interface number,     10013,is single surface-resultants are undefined
 interface number,     10001,is single surface-resultants are undefined
 interface number,     10001,is single surface-resultants are undefined
  slave           2 time 6.19954E-01  x -3.82995E-01  y -1.46697E+01  z  1.45552E-03 mass  1.77453E-03  mx  8.16960E-01  my  3.50795E-02  mz  1.36868E+00
  master          2 time 6.19954E-01  x  3.82995E-01  y  1.46697E+01  z -1.45552E-03 mass  1.77453E-03  mx -8.16960E-01  my -3.50795E-02  mz -1.36868E+00
 interface number,     10013,is single surface-resultants are undefined
 interface number,     10013,is single surface-resultants are undefined
 interface number,     10001,is single surface-resultants are undefined
 interface number,     10001,is single surface-resultants are undefined
  slave           2 time 6.24980E-01  x -2.52692E-01  y -1.45942E+01  z -1.26039E-03 mass  1.77453E-03  mx  1.13006E+00  my -2.00033E-01  mz  1.90785E+00
  master          2 time 6.24980E-01  x  2.52692E-01  y  1.45942E+01  z  1.26039E-03 mass  1.77453E-03  mx -1.13006E+00  my  2.00033E-01  mz -1.90785E+00
 interface number,     10013,is single surface-resultants are undefined
 interface number,     10013,is single surface-resultants are undefined
 interface number,     10001,is single surface-resultants are undefined
 interface number,     10001,is single surface-resultants are undefined
  slave           2 time 6.29811E-01  x -5.42225E-02  y -1.41783E+01  z -7.83401E-03 mass  1.77453E-03  mx  9.75140E-01  my -1.02154E-01  mz  9.81750E-01
  master          2 time 6.29811E-01  x  5.42225E-02  y  1.41783E+01  z  7.83401E-03 mass  1.77453E-03  mx -9.75140E-01  my  1.02154E-01  mz -9.81750E-01
 interface number,     10013,is single surface-resultants are undefined
 interface number,     10013,is single surface-resultants are undefined
 interface number,     10001,is single surface-resultants are undefined
 interface number,     10001,is single surface-resultants are undefined
  slave           2 time 6.34835E-01  x -2.97607E-01  y -1.35071E+01  z -3.32580E-02 mass  1.77453E-03  mx  6.50542E-01  my  2.04186E-01  mz -1.35994E+00
  master          2 time 6.34835E-01  x  2.97607E-01  y  1.35071E+01  z  3.32580E-02 mass  1.77453E-03  mx -6.50542E-01  my -2.04186E-01  mz  1.35994E+00
 interface number,     10013,is single surface-resultants are undefined
 interface number,     10013,is single surface-resultants are undefined
 interface number,     10001,is single surface-resultants are undefined
 interface number,     10001,is single surface-resultants are undefined
  slave           2 time 6.39858E-01  x -9.64100E-01  y -1.28749E+01  z -2.01023E-02 mass  1.77453E-03  mx  3.93428E-01  my  2.71844E-01  mz  4.87492E-01
  master          2 time 6.39858E-01  x  9.64100E-01  y  1.28749E+01  z  2.01023E-02 mass  1.77453E-03  mx -3.93428E-01  my -2.71844E-01  mz -4.87492E-01
 interface number,     10013,is single surface-resultants are undefined
 interface number,     10013,is single surface-resultants are undefined
 interface number,     10001,is single surface-resultants are undefined
 interface number,     10001,is single surface-resultants are undefined
  slave           2 time 6.44896E-01  x -8.11670E-01  y -1.30936E+01  z  3.92210E-04 mass  1.77453E-03  mx  3.14615E-01  my  2.44075E-01  mz  3.76252E+00
  master          2 time 6.44896E-01  x  8.11670E-01  y  1.30936E+01  z -3.92210E-04 mass  1.77453E-03  mx -3.14615E-01  my -2.44075E-01  mz -3.76252E+00
 interface number,     10013,is single surface-resultants are undefined
 interface number,     10013,is single surface-resultants are undefined
 interface number,     10001,is single surface-resultants are undefined
 interface number,     10001,is single surface-resultants are undefined
  slave           2 time 6.49912E-01  x -1.04952E-01  y -1.38692E+01  z -3.41531E-02 mass  1.77453E-03  mx  4.66562E-01  my  3.97966E-01  mz  6.45192E+00
  master          2 time 6.49912E-01  x  1.04952E-01  y  1.38692E+01  z  3.41531E-02 mass  1.77453E-03  mx -4.66562E-01  my -3.97966E-01  mz -6.45192E+00
 interface number,     10013,is single surface-resultants are undefined
 interface number,     10013,is single surface-resultants are undefined
 interface number,     10001,is single surface-resultants are undefined
 interface number,     10001,is single surface-resultants are undefined
  slave           2 time 6.54930E-01  x -2.39950E-02  y -1.46104E+01  z -4.40606E-02 mass  1.77453E-03  mx  6.28590E-01  my  3.60574E-01  mz  5.04103E+00
  master          2 time 6.54930E-01  x  2.39950E-02  y  1.46104E+01  z  4.40606E-02 mass  1.77453E-03  mx -6.28590E-01  my -3.60574E-01  mz -5.04103E+00
 interface number,     10013,is single surface-resultants are undefined
 interface number,     10013,is single surface-resultants are undefined
 interface number,     10001,is single surface-resultants are undefined
 interface number,     10001,is single surface-resultants are undefined
  slave           2 time 6.59947E-01  x -7.03480E-02  y -1.51082E+01  z -4.27047E-02 mass  1.77453E-03  mx  2.28358E-01  my  4.52333E-01  mz -6.43414E-01
  master          2 time 6.59947E-01  x  7.03480E-02  y  1.51082E+01  z  4.27047E-02 mass  1.77453E-03  mx -2.28358E-01  my -4.52333E-01  mz  6.43414E-01
 interface number,     10013,is single surface-resultants are undefined
 interface number,     10013,is single surface-resultants are undefined
 interface number,     10001,is single surface-resultants are undefined
 interface number,     10001,is single surface-resultants are undefined
[...]
  master          2 time 4.83497E+00  x  9.93466E-01  y  2.01206E+01  z  9.57171E-03 mass  1.69389E-03  mx -5.93603E-01  my -1.43470E-01  mz  7.70828E+01
 interface number,     10013,is single surface-resultants are undefined
 interface number,     10013,is single surface-resultants are undefined
 interface number,     10001,is single surface-resultants are undefined
 interface number,     10001,is single surface-resultants are undefined
  slave           2 time 4.83994E+00  x -8.74188E-01  y -2.01237E+01  z -1.89858E-02 mass  1.69389E-03  mx  4.19279E-01  my  1.72282E-01  mz -7.74562E+01
  master          2 time 4.83994E+00  x  8.74188E-01  y  2.01237E+01  z  1.89858E-02 mass  1.69389E-03  mx -4.19279E-01  my -1.72282E-01  mz  7.74562E+01
 interface number,     10013,is single surface-resultants are undefined
 interface number,     10013,is single surface-resultants are undefined
 interface number,     10001,is single surface-resultants are undefined
 interface number,     10001,is single surface-resultants are undefined
  slave           2 time 4.84489E+00  x -7.44514E-01  y -2.00858E+01  z -2.70896E-02 mass  1.69389E-03  mx  2.64882E-01  my  1.79863E-01  mz -7.72797E+01
  master          2 time 4.84489E+00  x  7.44514E-01  y  2.00858E+01  z  2.70896E-02 mass  1.69389E-03  mx -2.64882E-01  my -1.79863E-01  mz  7.72797E+01
 interface number,     10013,is single surface-resultants are undefined
 interface number,     10013,is single surface-resultants are undefined
 interface number,     10001,is single surface-resultants are undefined
 interface number,     10001,is single surface-resultants are undefined
  slave           2 time 4.84987E+00  x -5.80910E-01  y -1.99787E+01  z -1.75188E-02 mass  1.69389E-03  mx  1.59226E-01  my  3.13856E-01  mz -7.61806E+01
  master          2 time 4.84987E+00  x  5.80910E-01  y  1.99787E+01  z  1.75188E-02 mass  1.69389E-03  mx -1.59226E-01  my -3.13856E-01  mz  7.61806E+01
 interface number,     10013,is single surface-resultants are undefined
 interface number,     10013,is single surface-resultants are undefined
 interface number,     10001,is single surface-resultants are undefined
 interface number,     10001,is single surface-resultants are undefined
  slave           2 time 4.85485E+00  x -5.91971E-01  y -1.97963E+01  z -2.99320E-02 mass  1.69389E-03  mx  5.31773E-01  my  4.70228E-01  mz -7.57077E+01
  master          2 time 4.85485E+00  x  5.91971E-01  y  1.97963E+01  z  2.99320E-02 mass  1.69389E-03  mx -5.31773E-01  my -4.70228E-01  mz  7.57077E+01
 interface number,     10013,is single surface-resultants are undefined
 interface number,     10013,is single surface-resultants are undefined
 interface number,     10001,is single surface-resultants are undefined
 interface number,     10001,is single surface-resultants are undefined
  slave           2 time 4.85982E+00  x -6.11669E-01  y -1.96431E+01  z -2.50345E-02 mass  1.69389E-03  mx  5.67907E-01  my  3.64455E-01  mz -7.55264E+01
  master          2 time 4.85982E+00  x  6.11669E-01  y  1.96431E+01  z  2.50345E-02 mass  1.69389E-03  mx -5.67907E-01  my -3.64455E-01  mz  7.55264E+01
 interface number,     10013,is single surface-resultants are undefined
 interface number,     10013,is single surface-resultants are undefined
 interface number,     10001,is single surface-resultants are undefined
 interface number,     10001,is single surface-resultants are undefined
  slave           2 time 4.86480E+00  x -7.23738E-01  y -1.94831E+01  z -1.76859E-02 mass  1.69389E-03  mx  4.91101E-01  my  2.09442E-01  mz -7.56835E+01
  master          2 time 4.86480E+00  x  7.23738E-01  y  1.94831E+01  z  1.76859E-02 mass  1.69389E-03  mx -4.91101E-01  my -2.09442E-01  mz  7.56835E+01
 interface number,     10013,is single surface-resultants are undefined
 interface number,     10013,is single surface-resultants are undefined
 interface number,     10001,is single surface-resultants are undefined
 interface number,     10001,is single surface-resultants are undefined
  slave           2 time 4.86998E+00  x -8.75017E-01  y -1.93424E+01  z  1.76434E-02 mass  1.69389E-03  mx  2.65487E-01  my -5.50760E-02  mz -7.54484E+01
  master          2 time 4.86998E+00  x  8.75017E-01  y  1.93424E+01  z -1.76434E-02 mass  1.69389E-03  mx -2.65487E-01  my  5.50760E-02  mz  7.54484E+01
 interface number,     10013,is single surface-resultants are undefined
 interface number,     10013,is single surface-resultants are undefined
 interface number,     10001,is single surface-resultants are undefined
 interface number,     10001,is single surface-resultants are undefined
  slave           2 time 4.87495E+00  x -9.80375E-01  y -1.93168E+01  z  3.01666E-02 mass  1.69389E-03  mx  4.88564E-01  my -7.58461E-02  mz -7.54684E+01
  master          2 time 4.87495E+00  x  9.80375E-01  y  1.93168E+01  z -3.01666E-02 mass  1.69389E-03  mx -4.88564E-01  my  7.58461E-02  mz  7.54684E+01
 interface number,     10013,is single surface-resultants are undefined
 interface number,     10013,is single surface-resultants are undefined
 interface number,     10001,is single surface-resultants are undefined
 interface number,     10001,is single surface-resultants are undefined
  slave           2 time 4.87992E+00  x -1.04143E+00  y -1.93602E+01  z  1.14724E-02 mass  1.69389E-03  mx  6.82296E-01  my -3.38758E-02  mz -7.57652E+01
  master          2 time 4.87992E+00  x  1.04143E+00  y  1.93602E+01  z -1.14724E-02 mass  1.69389E-03  mx -6.82296E-01  my  3.38758E-02  mz  7.57652E+01
 interface number,     10013,is single surface-resultants are undefined
 interface number,     10013,is single surface-resultants are undefined
 interface number,     10001,is single surface-resultants are undefined
 interface number,     10001,is single surface-resultants are undefined
  slave           2 time 4.88487E+00  x -1.06824E+00  y -1.94028E+01  z -8.00968E-06 mass  1.69389E-03  mx  5.96831E-01  my  5.77504E-02  mz -7.60666E+01
  master          2 time 4.88487E+00  x  1.06824E+00  y  1.94028E+01  z  8.00968E-06 mass  1.69389E-03  mx -5.96831E-01  my -5.77504E-02  mz  7.60666E+01
 interface number,     10013,is single surface-resultants are undefined
 interface number,     10013,is single surface-resultants are undefined
 interface number,     10001,is single surface-resultants are undefined
 interface number,     10001,is single surface-resultants are undefined
  slave           2 time 4.88984E+00  x -1.08375E+00  y -1.94762E+01  z  9.57826E-04 mass  1.69389E-03  mx  6.25467E-01  my -2.08562E-02  mz -7.63519E+01
  master          2 time 4.88984E+00  x  1.08375E+00  y  1.94762E+01  z -9.57826E-04 mass  1.69389E-03  mx -6.25467E-01  my  2.08562E-02  mz  7.63519E+01
 interface number,     10013,is single surface-resultants are undefined
 interface number,     10013,is single surface-resultants are undefined
 interface number,     10001,is single surface-resultants are undefined
 interface number,     10001,is single surface-resultants are undefined
  slave           2 time 4.89480E+00  x -1.09844E+00  y -1.96772E+01  z  1.33153E-03 mass  1.69389E-03  mx  7.42705E-01  my  1.36151E-02  mz -7.70154E+01
  master          2 time 4.89480E+00  x  1.09844E+00  y  1.96772E+01  z -1.33153E-03 mass  1.69389E-03  mx -7.42705E-01  my -1.36151E-02  mz  7.70154E+01
 interface number,     10013,is single surface-resultants are undefined
 interface number,     10013,is single surface-resultants are undefined
 interface number,     10001,is single surface-resultants are undefined
 interface number,     10001,is single surface-resultants are undefined
  slave           2 time 4.89996E+00  x -1.10449E+00  y -1.98872E+01  z  1.24437E-02 mass  1.69389E-03  mx  7.09956E-01  my -2.24555E-02  mz -7.79768E+01
  master          2 time 4.89996E+00  x  1.10449E+00  y  1.98872E+01  z -1.24437E-02 mass  1.69389E-03  mx -7.09956E-01  my  2.24555E-02  mz  7.79768E+01
 interface number,     10013,is single surface-resultants are undefined
 interface number,     10013,is single surface-resultants are undefined
 interface number,     10001,is single surface-resultants are undefined
 interface number,     10001,is single surface-resultants are undefined
  slave           2 time 4.90492E+00  x -1.16136E+00  y -1.99591E+01  z  1.82220E-02 mass  1.69389E-03  mx  6.61818E-01  my  2.94085E-01  mz -7.86470E+01
  master          2 time 4.90492E+00  x  1.16136E+00  y  1.99591E+01  z -1.82220E-02 mass  1.69389E-03  mx -6.61818E-01  my -2.94085E-01  mz  7.86470E+01
 interface number,     10013,is single surface-resultants are undefined
 interface number,     10013,is single surface-resultants are undefined
 interface number,     10001,is single surface-resultants are undefined
 interface number,     10001,is single surface-resultants are undefined
  slave           2 time 4.90989E+00  x -1.25047E+00  y -2.00019E+01  z -2.47338E-02 mass  1.69389E-03  mx  4.98838E-01  my  9.99200E-02  mz -7.95140E+01
  master          2 time 4.90989E+00  x  1.25047E+00  y  2.00019E+01  z  2.47338E-02 mass  1.69389E-03  mx -4.98838E-01  my -9.99200E-02  mz  7.95140E+01
 interface number,     10013,is single surface-resultants are undefined
 interface number,     10013,is single surface-resultants are undefined
 interface number,     10001,is single surface-resultants are undefined
 interface number,     10001,is single surface-resultants are undefined
  slave           2 time 4.91485E+00  x -1.06754E+00  y -2.00856E+01  z -3.89412E-02 mass  1.69389E-03  mx  9.30940E-01  my -2.53601E-01  mz -7.98498E+01
  master          2 time 4.91485E+00  x  1.06754E+00  y  2.00856E+01  z  3.89412E-02 mass  1.69389E-03  mx -9.30940E-01  my  2.53601E-01  mz  7.98498E+01
 interface number,     10013,is single surface-resultants are undefined
 interface number,     10013,is single surface-resultants are undefined
 interface number,     10001,is single surface-resultants are undefined
 interface number,     10001,is single surface-resultants are undefined
  slave           2 time 4.91982E+00  x -9.20838E-01  y -2.00996E+01  z -5.79113E-03 mass  1.69389E-03  mx  5.30638E-01  my  3.25359E-02  mz -7.96986E+01
  master          2 time 4.91982E+00  x  9.20838E-01  y  2.00996E+01  z  5.79113E-03 mass  1.69389E-03  mx -5.30638E-01  my -3.25359E-02  mz  7.96986E+01
 interface number,     10013,is single surface-resultants are undefined
 interface number,     10013,is single surface-resultants are undefined
 interface number,     10001,is single surface-resultants are undefined
 interface number,     10001,is single surface-resultants are undefined
  slave           2 time 4.92497E+00  x -8.11792E-01  y -1.99590E+01  z -1.97142E-02 mass  1.69389E-03  mx  3.55297E-01  my  6.13546E-02  mz -7.92004E+01
  master          2 time 4.92497E+00  x  8.11792E-01  y  1.99590E+01  z  1.97142E-02 mass  1.69389E-03  mx -3.55297E-01  my -6.13546E-02  mz  7.92004E+01
 interface number,     10013,is single surface-resultants are undefined
 interface number,     10013,is single surface-resultants are undefined
 interface number,     10001,is single surface-resultants are undefined
 interface number,     10001,is single surface-resultants are undefined
  slave           2 time 4.92994E+00  x -7.16817E-01  y -1.97890E+01  z -1.96608E-02 mass  1.69389E-03  mx  4.01133E-01  my  2.74041E-01  mz -7.80527E+01
  master          2 time 4.92994E+00  x  7.16817E-01  y  1.97890E+01  z  1.96608E-02 mass  1.69389E-03  mx -4.01133E-01  my -2.74041E-01  mz  7.80527E+01
 interface number,     10013,is single surface-resultants are undefined
 interface number,     10013,is single surface-resultants are undefined
 interface number,     10001,is single surface-resultants are undefined
 interface number,     10001,is single surface-resultants are undefined
  slave           2 time 4.93491E+00  x -7.06912E-01  y -1.95944E+01  z -4.36835E-03 mass  1.69389E-03  mx  5.25229E-01  my  3.00636E-01  mz -7.74830E+01
  master          2 time 4.93491E+00  x  7.06912E-01  y  1.95944E+01  z  4.36835E-03 mass  1.69389E-03  mx -5.25229E-01  my -3.00636E-01  mz  7.74830E+01
 interface number,     10013,is single surface-resultants are undefined
 interface number,     10013,is single surface-resultants are undefined
 interface number,     10001,is single surface-resultants are undefined
 interface number,     10001,is single surface-resultants are undefined
  slave           2 time 4.93988E+00  x -8.29045E-01  y -1.94269E+01  z -3.25503E-03 mass  1.69389E-03  mx  6.08150E-01  my  2.77892E-01  mz -7.73898E+01
  master          2 time 4.93988E+00  x  8.29045E-01  y  1.94269E+01  z  3.25503E-03 mass  1.69389E-03  mx -6.08150E-01  my -2.77892E-01  mz  7.73898E+01
 interface number,     10013,is single surface-resultants are undefined
 interface number,     10013,is single surface-resultants are undefined
 interface number,     10001,is single surface-resultants are undefined
 interface number,     10001,is single surface-resultants are undefined
  slave           2 time 4.94485E+00  x -9.18292E-01  y -1.92726E+01  z  7.53090E-03 mass  1.69389E-03  mx  4.42035E-01  my  1.21434E-01  mz -7.70880E+01
  master          2 time 4.94485E+00  x  9.18292E-01  y  1.92726E+01  z -7.53090E-03 mass  1.69389E-03  mx -4.42035E-01  my -1.21434E-01  mz  7.70880E+01
 interface number,     10013,is single surface-resultants are undefined
 interface number,     10013,is single surface-resultants are undefined
 interface number,     10001,is single surface-resultants are undefined
 interface number,     10001,is single surface-resultants are undefined
  slave           2 time 4.94982E+00  x -1.03946E+00  y -1.92193E+01  z  6.89520E-04 mass  1.69389E-03  mx  4.51935E-01  my  2.84488E-02  mz -7.68044E+01
  master          2 time 4.94982E+00  x  1.03946E+00  y  1.92193E+01  z -6.89520E-04 mass  1.69389E-03  mx -4.51935E-01  my -2.84488E-02  mz  7.68044E+01
 interface number,     10013,is single surface-resultants are undefined
 interface number,     10013,is single surface-resultants are undefined
 interface number,     10001,is single surface-resultants are undefined
 interface number,     10001,is single surface-resultants are undefined
  slave           2 time 4.95498E+00  x -1.11272E+00  y -1.92325E+01  z -3.05062E-03 mass  1.69389E-03  mx  8.22508E-01  my -7.34208E-03  mz -7.66713E+01
  master          2 time 4.95498E+00  x  1.11272E+00  y  1.92325E+01  z  3.05062E-03 mass  1.69389E-03  mx -8.22508E-01  my  7.34208E-03  mz  7.66713E+01
 interface number,     10013,is single surface-resultants are undefined
 interface number,     10013,is single surface-resultants are undefined
 interface number,     10001,is single surface-resultants are undefined
 interface number,     10001,is single surface-resultants are undefined
  slave           2 time 4.95995E+00  x -1.13722E+00  y -1.92273E+01  z -3.33753E-03 mass  1.69389E-03  mx  1.04244E+00  my  1.67503E-02  mz -7.66749E+01
  master          2 time 4.95995E+00  x  1.13722E+00  y  1.92273E+01  z  3.33753E-03 mass  1.69389E-03  mx -1.04244E+00  my -1.67503E-02  mz  7.66749E+01
 interface number,     10013,is single surface-resultants are undefined
 interface number,     10013,is single surface-resultants are undefined
 interface number,     10001,is single surface-resultants are undefined
 interface number,     10001,is single surface-resultants are undefined
  slave           2 time 4.96492E+00  x -1.15353E+00  y -1.92862E+01  z -3.05707E-05 mass  1.69389E-03  mx  9.52382E-01  my -4.02091E-02  mz -7.66934E+01
  master          2 time 4.96492E+00  x  1.15353E+00  y  1.92862E+01  z  3.05707E-05 mass  1.69389E-03  mx -9.52382E-01  my  4.02091E-02  mz  7.66934E+01
 interface number,     10013,is single surface-resultants are undefined
 interface number,     10013,is single surface-resultants are undefined
 interface number,     10001,is single surface-resultants are undefined
 interface number,     10001,is single surface-resultants are undefined
  slave           2 time 4.96989E+00  x -1.16630E+00  y -1.94385E+01  z -3.65179E-03 mass  1.69389E-03  mx  8.49285E-01  my  3.23097E-02  mz -7.72254E+01
  master          2 time 4.96989E+00  x  1.16630E+00  y  1.94385E+01  z  3.65179E-03 mass  1.69389E-03  mx -8.49285E-01  my -3.23097E-02  mz  7.72254E+01
 interface number,     10013,is single surface-resultants are undefined
 interface number,     10013,is single surface-resultants are undefined
 interface number,     10001,is single surface-resultants are undefined
 interface number,     10001,is single surface-resultants are undefined
  slave           2 time 4.97485E+00  x -1.17611E+00  y -1.96908E+01  z -1.67001E-03 mass  1.69389E-03  mx  8.26933E-01  my  3.47745E-02  mz -7.83483E+01
  master          2 time 4.97485E+00  x  1.17611E+00  y  1.96908E+01  z  1.67001E-03 mass  1.69389E-03  mx -8.26933E-01  my -3.47745E-02  mz  7.83483E+01
 interface number,     10013,is single surface-resultants are undefined
 interface number,     10013,is single surface-resultants are undefined
 interface number,     10001,is single surface-resultants are undefined
 interface number,     10001,is single surface-resultants are undefined
  slave           2 time 4.97980E+00  x -1.16833E+00  y -1.98213E+01  z -1.04762E-03 mass  1.69389E-03  mx  8.44503E-01  my -7.43242E-03  mz -7.89072E+01
  master          2 time 4.97980E+00  x  1.16833E+00  y  1.98213E+01  z  1.04762E-03 mass  1.69389E-03  mx -8.44503E-01  my  7.43242E-03  mz  7.89072E+01
 interface number,     10013,is single surface-resultants are undefined
 interface number,     10013,is single surface-resultants are undefined
 interface number,     10001,is single surface-resultants are undefined
 interface number,     10001,is single surface-resultants are undefined
  slave           2 time 4.98497E+00  x -1.14457E+00  y -1.98657E+01  z  1.42232E-03 mass  1.69389E-03  mx  7.91976E-01  my  3.19880E-02  mz -7.92901E+01
  master          2 time 4.98497E+00  x  1.14457E+00  y  1.98657E+01  z -1.42232E-03 mass  1.69389E-03  mx -7.91976E-01  my -3.19880E-02  mz  7.92901E+01
 interface number,     10013,is single surface-resultants are undefined
 interface number,     10013,is single surface-resultants are undefined
 interface number,     10001,is single surface-resultants are undefined
 interface number,     10001,is single surface-resultants are undefined
  slave           2 time 4.98996E+00  x -1.09647E+00  y -1.99036E+01  z -3.28702E-02 mass  1.61302E-03  mx  7.89677E-01  my  1.74274E-01  mz -7.94902E+01
  master          2 time 4.98996E+00  x  1.09647E+00  y  1.99036E+01  z  3.28702E-02 mass  1.61302E-03  mx -7.89677E-01  my -1.74274E-01  mz  7.94902E+01
 interface number,     10013,is single surface-resultants are undefined
 interface number,     10013,is single surface-resultants are undefined
 interface number,     10001,is single surface-resultants are undefined
 interface number,     10001,is single surface-resultants are undefined
  slave           2 time 4.99494E+00  x -1.02611E+00  y -1.99015E+01  z -1.71972E-02 mass  1.61302E-03  mx  6.34894E-01  my  1.09075E-01  mz -7.96309E+01
  master          2 time 4.99494E+00  x  1.02611E+00  y  1.99015E+01  z  1.71972E-02 mass  1.61302E-03  mx -6.34894E-01  my -1.09075E-01  mz  7.96309E+01
 interface number,     10013,is single surface-resultants are undefined
 interface number,     10013,is single surface-resultants are undefined
 interface number,     10001,is single surface-resultants are undefined
 interface number,     10001,is single surface-resultants are undefined
  slave           2 time 4.99989E+00  x -8.76436E-01  y -1.98413E+01  z -3.26574E-03 mass  1.61302E-03  mx  6.31011E-01  my  5.04310E-02  mz -7.87911E+01
  master          2 time 4.99989E+00  x  8.76436E-01  y  1.98413E+01  z  3.26574E-03 mass  1.61302E-03  mx -6.31011E-01  my -5.04310E-02  mz  7.87911E+01
 interface number,     10013,is single surface-resultants are undefined
 interface number,     10013,is single surface-resultants are undefined
