 Bolted Connection Type b                                                
                    ls-dyna smp d R13 R13.1.1_27_8731a0 date 07/28/2023

{BEGIN LEGEND}
 Entity #        Title
        2      Contact Force Between Sheets                                        
    10001      Global Contact                                                      
    10013      Beam Contact                                                        
{END LEGEND}




 contact interface energy file, time= 0.0000000E+00
    #             slave       master       cycle=             1    frictional

     10001   0.0000E+00   0.0000E+00                               0.0000E+00
         2   0.0000E+00   0.0000E+00                               0.0000E+00
     10013   0.0000E+00   0.0000E+00                               0.0000E+00

 summary   total slave side= 0.0000000E+00
           total mastr side= 0.0000000E+00
           total energy    = 0.0000000E+00
           friction energy = 0.0000000E+00






 contact interface energy file, time= 0.4873010E-02
    #             slave       master       cycle=            24    frictional

     10001   0.0000E+00   0.0000E+00                               0.0000E+00
         2   0.0000E+00   0.0000E+00                               0.0000E+00
     10013   0.0000E+00   0.0000E+00                               0.0000E+00

 summary   total slave side= 0.0000000E+00
           total mastr side= 0.0000000E+00
           total energy    = 0.0000000E+00
           friction energy = 0.0000000E+00






 contact interface energy file, time= 0.9957890E-02
    #             slave       master       cycle=            48    frictional

     10001   0.0000E+00   0.0000E+00                               0.0000E+00
         2   0.0000E+00   0.0000E+00                               0.0000E+00
     10013   0.0000E+00   0.0000E+00                               0.0000E+00

 summary   total slave side= 0.0000000E+00
           total mastr side= 0.0000000E+00
           total energy    = 0.0000000E+00
           friction energy = 0.0000000E+00






 contact interface energy file, time= 0.1483090E-01
    #             slave       master       cycle=            71    frictional

     10001   0.0000E+00   0.0000E+00                               0.0000E+00
         2   0.0000E+00   0.0000E+00                               0.0000E+00
     10013   0.0000E+00   0.0000E+00                               0.0000E+00

 summary   total slave side= 0.0000000E+00
           total mastr side= 0.0000000E+00
           total energy    = 0.0000000E+00
           friction energy = 0.0000000E+00






 contact interface energy file, time= 0.1991578E-01
    #             slave       master       cycle=            95    frictional

     10001   0.0000E+00   0.0000E+00                               0.0000E+00
         2   0.0000E+00   0.0000E+00                               0.0000E+00
     10013   0.0000E+00   0.0000E+00                               0.0000E+00

 summary   total slave side= 0.0000000E+00
           total mastr side= 0.0000000E+00
           total energy    = 0.0000000E+00
           friction energy = 0.0000000E+00






 contact interface energy file, time= 0.2478879E-01
    #             slave       master       cycle=           118    frictional

     10001   0.0000E+00   0.0000E+00                               0.0000E+00
         2   0.0000E+00   0.0000E+00                               0.0000E+00
     10013   0.0000E+00   0.0000E+00                               0.0000E+00

 summary   total slave side= 0.0000000E+00
           total mastr side= 0.0000000E+00
           total energy    = 0.0000000E+00
           friction energy = 0.0000000E+00






 contact interface energy file, time= 0.2987367E-01
    #             slave       master       cycle=           142    frictional

     10001   0.0000E+00   0.0000E+00                               0.0000E+00
         2   0.0000E+00   0.0000E+00                               0.0000E+00
     10013   0.0000E+00   0.0000E+00                               0.0000E+00

 summary   total slave side= 0.0000000E+00
           total mastr side= 0.0000000E+00
           total energy    = 0.0000000E+00
           friction energy = 0.0000000E+00






 contact interface energy file, time= 0.3495855E-01
    #             slave       master       cycle=           166    frictional

     10001   0.0000E+00   0.0000E+00                               0.0000E+00
         2   0.0000E+00   0.0000E+00                               0.0000E+00
     10013   0.0000E+00   0.0000E+00                               0.0000E+00

 summary   total slave side= 0.0000000E+00
           total mastr side= 0.0000000E+00
           total energy    = 0.0000000E+00
           friction energy = 0.0000000E+00






 contact interface energy file, time= 0.3983156E-01
    #             slave       master       cycle=           189    frictional

     10001   0.0000E+00   0.0000E+00                               0.0000E+00
         2   0.0000E+00   0.0000E+00                               0.0000E+00
     10013   0.0000E+00   0.0000E+00                               0.0000E+00

 summary   total slave side= 0.0000000E+00
           total mastr side= 0.0000000E+00
           total energy    = 0.0000000E+00
           friction energy = 0.0000000E+00






 contact interface energy file, time= 0.4491644E-01
    #             slave       master       cycle=           213    frictional

     10001   0.0000E+00   0.0000E+00                               0.0000E+00
         2   0.0000E+00   0.0000E+00                               0.0000E+00
     10013   0.0000E+00   0.0000E+00                               0.0000E+00

 summary   total slave side= 0.0000000E+00
           total mastr side= 0.0000000E+00
           total energy    = 0.0000000E+00
           friction energy = 0.0000000E+00






 contact interface energy file, time= 0.4978945E-01
    #             slave       master       cycle=           236    frictional

     10001   0.0000E+00   0.0000E+00                               0.0000E+00
         2   0.0000E+00   0.0000E+00                               0.0000E+00
     10013   0.0000E+00   0.0000E+00                               0.0000E+00

 summary   total slave side= 0.0000000E+00
           total mastr side= 0.0000000E+00
           total energy    = 0.0000000E+00
           friction energy = 0.0000000E+00






 contact interface energy file, time= 0.5487433E-01
    #             slave       master       cycle=           260    frictional

     10001   0.0000E+00   0.0000E+00                               0.0000E+00
         2   0.0000E+00   0.0000E+00                               0.0000E+00
     10013   0.0000E+00   0.0000E+00                               0.0000E+00

 summary   total slave side= 0.0000000E+00
           total mastr side= 0.0000000E+00
           total energy    = 0.0000000E+00
           friction energy = 0.0000000E+00






 contact interface energy file, time= 0.5995921E-01
    #             slave       master       cycle=           284    frictional

     10001   0.0000E+00   0.0000E+00                               0.0000E+00
         2   0.0000E+00   0.0000E+00                               0.0000E+00
     10013   0.0000E+00   0.0000E+00                               0.0000E+00

 summary   total slave side= 0.0000000E+00
           total mastr side= 0.0000000E+00
           total energy    = 0.0000000E+00
           friction energy = 0.0000000E+00






 contact interface energy file, time= 0.6483222E-01
    #             slave       master       cycle=           307    frictional

     10001   0.0000E+00   0.0000E+00                               0.0000E+00
         2   0.0000E+00   0.0000E+00                               0.0000E+00
     10013   0.0000E+00   0.0000E+00                               0.0000E+00

 summary   total slave side= 0.0000000E+00
           total mastr side= 0.0000000E+00
           total energy    = 0.0000000E+00
           friction energy = 0.0000000E+00






 contact interface energy file, time= 0.6991710E-01
    #             slave       master       cycle=           331    frictional

     10001   0.0000E+00   0.0000E+00                               0.0000E+00
         2   0.0000E+00   0.0000E+00                               0.0000E+00
     10013   0.0000E+00   0.0000E+00                               0.0000E+00

 summary   total slave side= 0.0000000E+00
           total mastr side= 0.0000000E+00
           total energy    = 0.0000000E+00
           friction energy = 0.0000000E+00






 contact interface energy file, time= 0.7479011E-01
    #             slave       master       cycle=           354    frictional

     10001   0.0000E+00   0.0000E+00                               0.0000E+00
         2   0.0000E+00   0.0000E+00                               0.0000E+00
     10013   0.0000E+00   0.0000E+00                               0.0000E+00

 summary   total slave side= 0.0000000E+00
           total mastr side= 0.0000000E+00
           total energy    = 0.0000000E+00
           friction energy = 0.0000000E+00






 contact interface energy file, time= 0.7987499E-01
    #             slave       master       cycle=           378    frictional

     10001   0.0000E+00   0.0000E+00                               0.0000E+00
         2   0.0000E+00   0.0000E+00                               0.0000E+00
     10013   0.0000E+00   0.0000E+00                               0.0000E+00

 summary   total slave side= 0.0000000E+00
           total mastr side= 0.0000000E+00
           total energy    = 0.0000000E+00
           friction energy = 0.0000000E+00






 contact interface energy file, time= 0.8495987E-01
    #             slave       master       cycle=           402    frictional

     10001   0.0000E+00   0.0000E+00                               0.0000E+00
         2   0.0000E+00   0.0000E+00                               0.0000E+00
     10013   0.0000E+00   0.0000E+00                               0.0000E+00

 summary   total slave side= 0.0000000E+00
           total mastr side= 0.0000000E+00
           total energy    = 0.0000000E+00
           friction energy = 0.0000000E+00






 contact interface energy file, time= 0.8983288E-01
    #             slave       master       cycle=           425    frictional

     10001   0.0000E+00   0.0000E+00                               0.0000E+00
         2   0.0000E+00   0.0000E+00                               0.0000E+00
     10013   0.0000E+00   0.0000E+00                               0.0000E+00

 summary   total slave side= 0.0000000E+00
           total mastr side= 0.0000000E+00
           total energy    = 0.0000000E+00
           friction energy = 0.0000000E+00






 contact interface energy file, time= 0.9491776E-01
    #             slave       master       cycle=           449    frictional

     10001   0.0000E+00   0.0000E+00                               0.0000E+00
         2   0.0000E+00   0.0000E+00                               0.0000E+00
     10013   0.0000E+00   0.0000E+00                               0.0000E+00

 summary   total slave side= 0.0000000E+00
           total mastr side= 0.0000000E+00
           total energy    = 0.0000000E+00
           friction energy = 0.0000000E+00






 contact interface energy file, time= 0.9979077E-01
    #             slave       master       cycle=           472    frictional

     10001   0.0000E+00   0.0000E+00                               0.0000E+00
         2   0.0000E+00   0.0000E+00                               0.0000E+00
     10013   0.0000E+00   0.0000E+00                               0.0000E+00

 summary   total slave side= 0.0000000E+00
           total mastr side= 0.0000000E+00
           total energy    = 0.0000000E+00
           friction energy = 0.0000000E+00






 contact interface energy file, time= 0.1048757E+00
    #             slave       master       cycle=           496    frictional

     10001   0.0000E+00   0.0000E+00                               0.0000E+00
         2   0.0000E+00   0.0000E+00                               0.0000E+00
     10013   0.0000E+00   0.0000E+00                               0.0000E+00

 summary   total slave side= 0.0000000E+00
           total mastr side= 0.0000000E+00
           total energy    = 0.0000000E+00
           friction energy = 0.0000000E+00






 contact interface energy file, time= 0.1099605E+00
    #             slave       master       cycle=           520    frictional

     10001   0.0000E+00   0.0000E+00                               0.0000E+00
         2   0.0000E+00   0.0000E+00                               0.0000E+00
     10013   0.0000E+00   0.0000E+00                               0.0000E+00

 summary   total slave side= 0.0000000E+00
           total mastr side= 0.0000000E+00
           total energy    = 0.0000000E+00
           friction energy = 0.0000000E+00






 contact interface energy file, time= 0.1148335E+00
    #             slave       master       cycle=           543    frictional

     10001   0.0000E+00   0.0000E+00                               0.0000E+00
         2   0.0000E+00   0.0000E+00                               0.0000E+00
     10013   0.0000E+00   0.0000E+00                               0.0000E+00

 summary   total slave side= 0.0000000E+00
           total mastr side= 0.0000000E+00
           total energy    = 0.0000000E+00
           friction energy = 0.0000000E+00






 contact interface energy file, time= 0.1199184E+00
    #             slave       master       cycle=           567    frictional

     10001   0.0000E+00   0.0000E+00                               0.0000E+00
         2   0.0000E+00   0.0000E+00                               0.0000E+00
     10013   0.0000E+00   0.0000E+00                               0.0000E+00

 summary   total slave side= 0.0000000E+00
           total mastr side= 0.0000000E+00
           total energy    = 0.0000000E+00
           friction energy = 0.0000000E+00






 contact interface energy file, time= 0.1247914E+00
    #             slave       master       cycle=           590    frictional

     10001   0.0000E+00   0.0000E+00                               0.0000E+00
         2   0.0000E+00   0.0000E+00                               0.0000E+00
     10013   0.0000E+00   0.0000E+00                               0.0000E+00

 summary   total slave side= 0.0000000E+00
           total mastr side= 0.0000000E+00
           total energy    = 0.0000000E+00
           friction energy = 0.0000000E+00






 contact interface energy file, time= 0.1298763E+00
    #             slave       master       cycle=           614    frictional

     10001   0.0000E+00   0.0000E+00                               0.0000E+00
         2   0.0000E+00   0.0000E+00                               0.0000E+00
     10013   0.0000E+00   0.0000E+00                               0.0000E+00

 summary   total slave side= 0.0000000E+00
           total mastr side= 0.0000000E+00
           total energy    = 0.0000000E+00
           friction energy = 0.0000000E+00






 contact interface energy file, time= 0.1349612E+00
    #             slave       master       cycle=           638    frictional

     10001   0.0000E+00   0.0000E+00                               0.0000E+00
         2   0.0000E+00   0.0000E+00                               0.0000E+00
     10013   0.0000E+00   0.0000E+00                               0.0000E+00

 summary   total slave side= 0.0000000E+00
           total mastr side= 0.0000000E+00
           total energy    = 0.0000000E+00
           friction energy = 0.0000000E+00






 contact interface energy file, time= 0.1398342E+00
    #             slave       master       cycle=           661    frictional

     10001   0.0000E+00   0.0000E+00                               0.0000E+00
         2   0.0000E+00   0.0000E+00                               0.0000E+00
     10013   0.0000E+00   0.0000E+00                               0.0000E+00

 summary   total slave side= 0.0000000E+00
           total mastr side= 0.0000000E+00
           total energy    = 0.0000000E+00
           friction energy = 0.0000000E+00






 contact interface energy file, time= 0.1449191E+00
    #             slave       master       cycle=           685    frictional

     10001   0.0000E+00   0.0000E+00                               0.0000E+00
         2   0.0000E+00   0.0000E+00                               0.0000E+00
     10013   0.0000E+00   0.0000E+00                               0.0000E+00

 summary   total slave side= 0.0000000E+00
           total mastr side= 0.0000000E+00
           total energy    = 0.0000000E+00
           friction energy = 0.0000000E+00






 contact interface energy file, time= 0.1497921E+00
    #             slave       master       cycle=           708    frictional

     10001   0.0000E+00   0.0000E+00                               0.0000E+00
         2   0.0000E+00   0.0000E+00                               0.0000E+00
     10013   0.0000E+00   0.0000E+00                               0.0000E+00

 summary   total slave side= 0.0000000E+00
           total mastr side= 0.0000000E+00
           total energy    = 0.0000000E+00
           friction energy = 0.0000000E+00






 contact interface energy file, time= 0.1548770E+00
    #             slave       master       cycle=           732    frictional

     10001   0.0000E+00   0.0000E+00                               0.0000E+00
         2   0.0000E+00   0.0000E+00                               0.0000E+00
     10013   0.0000E+00   0.0000E+00                               0.0000E+00

 summary   total slave side= 0.0000000E+00
           total mastr side= 0.0000000E+00
           total energy    = 0.0000000E+00
           friction energy = 0.0000000E+00






 contact interface energy file, time= 0.1599619E+00
    #             slave       master       cycle=           756    frictional

     10001   0.0000E+00   0.0000E+00                               0.0000E+00
         2   0.0000E+00   0.0000E+00                               0.0000E+00
     10013   0.0000E+00   0.0000E+00                               0.0000E+00

 summary   total slave side= 0.0000000E+00
           total mastr side= 0.0000000E+00
           total energy    = 0.0000000E+00
           friction energy = 0.0000000E+00






 contact interface energy file, time= 0.1648336E+00
    #             slave       master       cycle=           779    frictional

     10001   0.6483E+00   0.0000E+00                               0.7050E-02
         2   0.0000E+00   0.0000E+00                               0.0000E+00
     10013   0.0000E+00   0.0000E+00                               0.0000E+00

 summary   total slave side= 0.6482595E+00
           total mastr side= 0.0000000E+00
           total energy    = 0.6482595E+00
           friction energy = 0.7050120E-02






 contact interface energy file, time= 0.1699143E+00
    #             slave       master       cycle=           803    frictional

     10001   0.7866E+00   0.0000E+00                               0.7603E-01
         2   0.0000E+00   0.0000E+00                               0.0000E+00
     10013   0.0000E+00   0.0000E+00                               0.0000E+00

 summary   total slave side= 0.7866408E+00
           total mastr side= 0.0000000E+00
           total energy    = 0.7866408E+00
           friction energy = 0.7602972E-01






 contact interface energy file, time= 0.1749754E+00
    #             slave       master       cycle=           827    frictional

     10001   0.1123E+01   0.0000E+00                               0.1483E+00
         2   0.0000E+00   0.0000E+00                               0.0000E+00
     10013   0.1368E+00   0.0000E+00                               0.1456E-01

 summary   total slave side= 0.1259416E+01
           total mastr side= 0.0000000E+00
           total energy    = 0.1259416E+01
           friction energy = 0.1628281E+00






 contact interface energy file, time= 0.1799369E+00
    #             slave       master       cycle=           851    frictional

     10001   0.2827E+01   0.0000E+00                               0.1891E+00
         2   0.0000E+00   0.0000E+00                               0.0000E+00
     10013  -0.6429E-01   0.0000E+00                               0.1032E+00

 summary   total slave side= 0.2762501E+01
           total mastr side= 0.0000000E+00
           total energy    = 0.2762501E+01
           friction energy = 0.2923629E+00






 contact interface energy file, time= 0.1849968E+00
    #             slave       master       cycle=           876    frictional

     10001   0.3904E+01   0.0000E+00                               0.2911E+00
         2   0.0000E+00   0.0000E+00                               0.0000E+00
     10013  -0.3359E+00   0.0000E+00                               0.1848E+00

 summary   total slave side= 0.3567915E+01
           total mastr side= 0.0000000E+00
           total energy    = 0.3567915E+01
           friction energy = 0.4759505E+00






 contact interface energy file, time= 0.1898188E+00
    #             slave       master       cycle=           900    frictional

     10001   0.3524E+01   0.0000E+00                               0.3234E+00
         2   0.0000E+00   0.0000E+00                               0.0000E+00
     10013  -0.3559E+00   0.0000E+00                               0.1946E+00

 summary   total slave side= 0.3167859E+01
           total mastr side= 0.0000000E+00
           total energy    = 0.3167859E+01
           friction energy = 0.5179693E+00






 contact interface energy file, time= 0.1948457E+00
    #             slave       master       cycle=           925    frictional

     10001   0.2741E+01   0.0000E+00                               0.3211E+00
         2   0.0000E+00   0.0000E+00                               0.0000E+00
     10013  -0.3683E+00   0.0000E+00                               0.1959E+00

 summary   total slave side= 0.2372677E+01
           total mastr side= 0.0000000E+00
           total energy    = 0.2372677E+01
           friction energy = 0.5169063E+00






 contact interface energy file, time= 0.1998687E+00
    #             slave       master       cycle=           950    frictional

     10001   0.2370E+01   0.0000E+00                               0.3237E+00
         2   0.0000E+00   0.0000E+00                               0.0000E+00
     10013  -0.3694E+00   0.0000E+00                               0.1961E+00

 summary   total slave side= 0.2000118E+01
           total mastr side= 0.0000000E+00
           total energy    = 0.2000118E+01
           friction energy = 0.5197501E+00






 contact interface energy file, time= 0.2048964E+00
    #             slave       master       cycle=           975    frictional

     10001   0.2197E+01   0.0000E+00                               0.3261E+00
         2   0.0000E+00   0.0000E+00                               0.0000E+00
     10013  -0.3694E+00   0.0000E+00                               0.1961E+00

 summary   total slave side= 0.1827536E+01
           total mastr side= 0.0000000E+00
           total energy    = 0.1827536E+01
           friction energy = 0.5221892E+00






 contact interface energy file, time= 0.2099229E+00
    #             slave       master       cycle=          1000    frictional

     10001   0.2158E+01   0.0000E+00                               0.3270E+00
         2   0.0000E+00   0.0000E+00                               0.0000E+00
     10013  -0.3694E+00   0.0000E+00                               0.1961E+00

 summary   total slave side= 0.1788223E+01
           total mastr side= 0.0000000E+00
           total energy    = 0.1788223E+01
           friction energy = 0.5230900E+00






 contact interface energy file, time= 0.2149470E+00
    #             slave       master       cycle=          1025    frictional

     10001   0.2157E+01   0.0000E+00                               0.3273E+00
         2   0.0000E+00   0.0000E+00                               0.0000E+00
     10013  -0.3694E+00   0.0000E+00                               0.1961E+00

 summary   total slave side= 0.1787523E+01
           total mastr side= 0.0000000E+00
           total energy    = 0.1787523E+01
           friction energy = 0.5233111E+00






 contact interface energy file, time= 0.2199713E+00
    #             slave       master       cycle=          1050    frictional

     10001   0.2157E+01   0.0000E+00                               0.3273E+00
         2   0.0000E+00   0.0000E+00                               0.0000E+00
     10013  -0.3694E+00   0.0000E+00                               0.1961E+00

 summary   total slave side= 0.1787527E+01
           total mastr side= 0.0000000E+00
           total energy    = 0.1787527E+01
           friction energy = 0.5233139E+00






 contact interface energy file, time= 0.2247994E+00
    #             slave       master       cycle=          1074    frictional

     10001   0.2157E+01   0.0000E+00                               0.3273E+00
         2   0.0000E+00   0.0000E+00                               0.0000E+00
     10013  -0.3694E+00   0.0000E+00                               0.1961E+00

 summary   total slave side= 0.1787527E+01
           total mastr side= 0.0000000E+00
           total energy    = 0.1787527E+01
           friction energy = 0.5233139E+00






 contact interface energy file, time= 0.2298273E+00
    #             slave       master       cycle=          1099    frictional

     10001   0.2162E+01   0.0000E+00                               0.3273E+00
         2   0.0000E+00   0.0000E+00                               0.0000E+00
     10013  -0.3694E+00   0.0000E+00                               0.1961E+00

 summary   total slave side= 0.1793028E+01
           total mastr side= 0.0000000E+00
           total energy    = 0.1793028E+01
           friction energy = 0.5233628E+00






 contact interface energy file, time= 0.2348536E+00
    #             slave       master       cycle=          1124    frictional

     10001   0.2200E+01   0.0000E+00                               0.3285E+00
         2   0.0000E+00   0.0000E+00                               0.0000E+00
     10013  -0.3694E+00   0.0000E+00                               0.1961E+00

 summary   total slave side= 0.1830622E+01
           total mastr side= 0.0000000E+00
           total energy    = 0.1830622E+01
           friction energy = 0.5246055E+00






 contact interface energy file, time= 0.2398794E+00
    #             slave       master       cycle=          1149    frictional

     10001   0.2209E+01   0.0000E+00                               0.3315E+00
         2   0.0000E+00   0.0000E+00                               0.0000E+00
     10013  -0.3694E+00   0.0000E+00                               0.1961E+00

 summary   total slave side= 0.1839482E+01
           total mastr side= 0.0000000E+00
           total energy    = 0.1839482E+01
           friction energy = 0.5275399E+00






 contact interface energy file, time= 0.2449047E+00
    #             slave       master       cycle=          1174    frictional

     10001   0.2292E+01   0.0000E+00                               0.3346E+00
         2   0.0000E+00   0.0000E+00                               0.0000E+00
     10013  -0.3694E+00   0.0000E+00                               0.1961E+00

 summary   total slave side= 0.1922736E+01
           total mastr side= 0.0000000E+00
           total energy    = 0.1922736E+01
           friction energy = 0.5306959E+00






 contact interface energy file, time= 0.2499306E+00
    #             slave       master       cycle=          1199    frictional

     10001   0.2491E+01   0.0000E+00                               0.3430E+00
         2   0.0000E+00   0.0000E+00                               0.0000E+00
     10013  -0.3671E+00   0.0000E+00                               0.1961E+00

 summary   total slave side= 0.2123822E+01
           total mastr side= 0.0000000E+00
           total energy    = 0.2123822E+01
           friction energy = 0.5391742E+00






 contact interface energy file, time= 0.2549528E+00
    #             slave       master       cycle=          1224    frictional

     10001   0.2947E+01   0.0000E+00                               0.3523E+00
         2   0.0000E+00   0.0000E+00                               0.0000E+00
     10013  -0.3600E+00   0.0000E+00                               0.1968E+00

 summary   total slave side= 0.2587133E+01
           total mastr side= 0.0000000E+00
           total energy    = 0.2587133E+01
           friction energy = 0.5491019E+00






 contact interface energy file, time= 0.2599742E+00
    #             slave       master       cycle=          1249    frictional

     10001   0.3236E+01   0.0000E+00                               0.3775E+00
         2   0.0000E+00   0.0000E+00                               0.0000E+00
     10013  -0.3566E+00   0.0000E+00                               0.1979E+00

 summary   total slave side= 0.2879709E+01
           total mastr side= 0.0000000E+00
           total energy    = 0.2879709E+01
           friction energy = 0.5754189E+00






 contact interface energy file, time= 0.2649977E+00
    #             slave       master       cycle=          1274    frictional

     10001   0.3352E+01   0.0000E+00                               0.3865E+00
         2   0.0000E+00   0.0000E+00                               0.0000E+00
     10013  -0.3554E+00   0.0000E+00                               0.1983E+00

 summary   total slave side= 0.2996184E+01
           total mastr side= 0.0000000E+00
           total energy    = 0.2996184E+01
           friction energy = 0.5848314E+00






 contact interface energy file, time= 0.2698186E+00
    #             slave       master       cycle=          1298    frictional

     10001   0.3008E+01   0.0000E+00                               0.3892E+00
         2   0.0000E+00   0.0000E+00                               0.0000E+00
     10013  -0.3616E+00   0.0000E+00                               0.1988E+00

 summary   total slave side= 0.2645999E+01
           total mastr side= 0.0000000E+00
           total energy    = 0.2645999E+01
           friction energy = 0.5880386E+00






 contact interface energy file, time= 0.2748409E+00
    #             slave       master       cycle=          1323    frictional

     10001   0.2714E+01   0.0000E+00                               0.3945E+00
         2   0.0000E+00   0.0000E+00                               0.0000E+00
     10013  -0.3623E+00   0.0000E+00                               0.1990E+00

 summary   total slave side= 0.2352030E+01
           total mastr side= 0.0000000E+00
           total energy    = 0.2352030E+01
           friction energy = 0.5934558E+00






 contact interface energy file, time= 0.2798618E+00
    #             slave       master       cycle=          1348    frictional

     10001   0.2629E+01   0.0000E+00                               0.3980E+00
         2   0.0000E+00   0.0000E+00                               0.0000E+00
     10013  -0.3623E+00   0.0000E+00                               0.1990E+00

 summary   total slave side= 0.2266830E+01
           total mastr side= 0.0000000E+00
           total energy    = 0.2266830E+01
           friction energy = 0.5970013E+00






 contact interface energy file, time= 0.2848919E+00
    #             slave       master       cycle=          1373    frictional

     10001   0.2578E+01   0.0000E+00                               0.3984E+00
         2   0.0000E+00   0.0000E+00                               0.0000E+00
     10013  -0.3623E+00   0.0000E+00                               0.1990E+00

 summary   total slave side= 0.2215785E+01
           total mastr side= 0.0000000E+00
           total energy    = 0.2215785E+01
           friction energy = 0.5973518E+00






 contact interface energy file, time= 0.2899223E+00
    #             slave       master       cycle=          1398    frictional

     10001   0.2563E+01   0.0000E+00                               0.4000E+00
         2   0.0000E+00   0.0000E+00                               0.0000E+00
     10013  -0.3623E+00   0.0000E+00                               0.1990E+00

 summary   total slave side= 0.2200621E+01
           total mastr side= 0.0000000E+00
           total energy    = 0.2200621E+01
           friction energy = 0.5989961E+00






 contact interface energy file, time= 0.2949467E+00
    #             slave       master       cycle=          1423    frictional

     10001   0.2596E+01   0.0000E+00                               0.4029E+00
         2   0.0000E+00   0.0000E+00                               0.0000E+00
     10013  -0.3623E+00   0.0000E+00                               0.1990E+00

 summary   total slave side= 0.2234211E+01
           total mastr side= 0.0000000E+00
           total energy    = 0.2234211E+01
           friction energy = 0.6019052E+00






 contact interface energy file, time= 0.2999707E+00
    #             slave       master       cycle=          1448    frictional

     10001   0.2666E+01   0.0000E+00                               0.4068E+00
         2   0.0000E+00   0.0000E+00                               0.0000E+00
     10013  -0.3618E+00   0.0000E+00                               0.1990E+00

 summary   total slave side= 0.2304694E+01
           total mastr side= 0.0000000E+00
           total energy    = 0.2304694E+01
           friction energy = 0.6058464E+00






 contact interface energy file, time= 0.3049962E+00
    #             slave       master       cycle=          1473    frictional

     10001   0.2783E+01   0.0000E+00                               0.4165E+00
         2   0.0000E+00   0.0000E+00                               0.0000E+00
     10013  -0.3610E+00   0.0000E+00                               0.1990E+00

 summary   total slave side= 0.2422466E+01
           total mastr side= 0.0000000E+00
           total energy    = 0.2422466E+01
           friction energy = 0.6155646E+00






 contact interface energy file, time= 0.3098192E+00
    #             slave       master       cycle=          1497    frictional

     10001   0.3089E+01   0.0000E+00                               0.4269E+00
         2   0.0000E+00   0.0000E+00                               0.0000E+00
     10013  -0.3533E+00   0.0000E+00                               0.1995E+00

 summary   total slave side= 0.2736067E+01
           total mastr side= 0.0000000E+00
           total energy    = 0.2736067E+01
           friction energy = 0.6264088E+00






 contact interface energy file, time= 0.3148405E+00
    #             slave       master       cycle=          1522    frictional

     10001   0.3319E+01   0.0000E+00                               0.4377E+00
         2   0.0000E+00   0.0000E+00                               0.0000E+00
     10013  -0.3504E+00   0.0000E+00                               0.2008E+00

 summary   total slave side= 0.2968859E+01
           total mastr side= 0.0000000E+00
           total energy    = 0.2968859E+01
           friction energy = 0.6384695E+00






 contact interface energy file, time= 0.3198632E+00
    #             slave       master       cycle=          1547    frictional

     10001   0.3308E+01   0.0000E+00                               0.4432E+00
         2   0.0000E+00   0.0000E+00                               0.0000E+00
     10013  -0.3510E+00   0.0000E+00                               0.2011E+00

 summary   total slave side= 0.2956475E+01
           total mastr side= 0.0000000E+00
           total energy    = 0.2956475E+01
           friction energy = 0.6442922E+00






 contact interface energy file, time= 0.3248848E+00
    #             slave       master       cycle=          1572    frictional

     10001   0.3200E+01   0.0000E+00                               0.4467E+00
         2   0.0000E+00   0.0000E+00                               0.0000E+00
     10013  -0.3527E+00   0.0000E+00                               0.2016E+00

 summary   total slave side= 0.2847366E+01
           total mastr side= 0.0000000E+00
           total energy    = 0.2847366E+01
           friction energy = 0.6482962E+00






 contact interface energy file, time= 0.3299153E+00
    #             slave       master       cycle=          1597    frictional

     10001   0.2969E+01   0.0000E+00                               0.4495E+00
         2   0.0000E+00   0.0000E+00                               0.0000E+00
     10013  -0.3544E+00   0.0000E+00                               0.2018E+00

 summary   total slave side= 0.2614243E+01
           total mastr side= 0.0000000E+00
           total energy    = 0.2614243E+01
           friction energy = 0.6513562E+00






 contact interface energy file, time= 0.3349430E+00
    #             slave       master       cycle=          1622    frictional

     10001   0.2849E+01   0.0000E+00                               0.4525E+00
         2   0.0000E+00   0.0000E+00                               0.0000E+00
     10013  -0.3544E+00   0.0000E+00                               0.2018E+00

 summary   total slave side= 0.2494596E+01
           total mastr side= 0.0000000E+00
           total energy    = 0.2494596E+01
           friction energy = 0.6543818E+00






 contact interface energy file, time= 0.3399663E+00
    #             slave       master       cycle=          1647    frictional

     10001   0.2826E+01   0.0000E+00                               0.4547E+00
         2   0.0000E+00   0.0000E+00                               0.0000E+00
     10013  -0.3544E+00   0.0000E+00                               0.2018E+00

 summary   total slave side= 0.2471191E+01
           total mastr side= 0.0000000E+00
           total energy    = 0.2471191E+01
           friction energy = 0.6565435E+00






 contact interface energy file, time= 0.3449936E+00
    #             slave       master       cycle=          1672    frictional

     10001   0.2819E+01   0.0000E+00                               0.4577E+00
         2   0.0000E+00   0.0000E+00                               0.0000E+00
     10013  -0.3544E+00   0.0000E+00                               0.2018E+00

 summary   total slave side= 0.2464823E+01
           total mastr side= 0.0000000E+00
           total energy    = 0.2464823E+01
           friction energy = 0.6595642E+00






 contact interface energy file, time= 0.3498141E+00
    #             slave       master       cycle=          1696    frictional

     10001   0.2876E+01   0.0000E+00                               0.4645E+00
         2   0.0000E+00   0.0000E+00                               0.0000E+00
     10013  -0.3542E+00   0.0000E+00                               0.2019E+00

 summary   total slave side= 0.2521939E+01
           total mastr side= 0.0000000E+00
           total energy    = 0.2521939E+01
           friction energy = 0.6663797E+00






 contact interface energy file, time= 0.3548373E+00
    #             slave       master       cycle=          1721    frictional

     10001   0.3031E+01   0.0000E+00                               0.4675E+00
         2   0.0000E+00   0.0000E+00                               0.0000E+00
     10013  -0.3538E+00   0.0000E+00                               0.2019E+00

 summary   total slave side= 0.2677410E+01
           total mastr side= 0.0000000E+00
           total energy    = 0.2677410E+01
           friction energy = 0.6694099E+00






 contact interface energy file, time= 0.3598640E+00
    #             slave       master       cycle=          1746    frictional

     10001   0.3213E+01   0.0000E+00                               0.4766E+00
         2   0.0000E+00   0.0000E+00                               0.0000E+00
     10013  -0.3516E+00   0.0000E+00                               0.2022E+00

 summary   total slave side= 0.2861653E+01
           total mastr side= 0.0000000E+00
           total energy    = 0.2861653E+01
           friction energy = 0.6787518E+00






 contact interface energy file, time= 0.3648850E+00
    #             slave       master       cycle=          1771    frictional

     10001   0.3363E+01   0.0000E+00                               0.4927E+00
         2   0.0000E+00   0.0000E+00                               0.0000E+00
     10013  -0.3494E+00   0.0000E+00                               0.2026E+00

 summary   total slave side= 0.3013769E+01
           total mastr side= 0.0000000E+00
           total energy    = 0.3013769E+01
           friction energy = 0.6952450E+00






 contact interface energy file, time= 0.3699067E+00
    #             slave       master       cycle=          1796    frictional

     10001   0.3409E+01   0.0000E+00                               0.5010E+00
         2   0.0000E+00   0.0000E+00                               0.0000E+00
     10013  -0.3485E+00   0.0000E+00                               0.2032E+00

 summary   total slave side= 0.3060727E+01
           total mastr side= 0.0000000E+00
           total energy    = 0.3060727E+01
           friction energy = 0.7042013E+00






 contact interface energy file, time= 0.3749506E+00
    #             slave       master       cycle=          1821    frictional

     10001   0.3261E+01   0.0000E+00                               0.5140E+00
         2   0.0000E+00   0.0000E+00                               0.0000E+00
     10013  -0.3500E+00   0.0000E+00                               0.2034E+00

 summary   total slave side= 0.2911088E+01
           total mastr side= 0.0000000E+00
           total energy    = 0.2911088E+01
           friction energy = 0.7174725E+00






 contact interface energy file, time= 0.3799709E+00
    #             slave       master       cycle=          1846    frictional

     10001   0.3104E+01   0.0000E+00                               0.5214E+00
         2   0.0000E+00   0.0000E+00                               0.0000E+00
     10013  -0.3510E+00   0.0000E+00                               0.2036E+00

 summary   total slave side= 0.2753102E+01
           total mastr side= 0.0000000E+00
           total energy    = 0.2753102E+01
           friction energy = 0.7250491E+00






 contact interface energy file, time= 0.3849983E+00
    #             slave       master       cycle=          1871    frictional

     10001   0.3027E+01   0.0000E+00                               0.5229E+00
         2   0.0000E+00   0.0000E+00                               0.0000E+00
     10013  -0.3510E+00   0.0000E+00                               0.2036E+00

 summary   total slave side= 0.2676255E+01
           total mastr side= 0.0000000E+00
           total energy    = 0.2676255E+01
           friction energy = 0.7265190E+00






 contact interface energy file, time= 0.3898180E+00
    #             slave       master       cycle=          1895    frictional

     10001   0.3001E+01   0.0000E+00                               0.5260E+00
         2   0.0000E+00   0.0000E+00                               0.0000E+00
     10013  -0.3510E+00   0.0000E+00                               0.2036E+00

 summary   total slave side= 0.2650398E+01
           total mastr side= 0.0000000E+00
           total energy    = 0.2650398E+01
           friction energy = 0.7296420E+00






 contact interface energy file, time= 0.3948415E+00
    #             slave       master       cycle=          1920    frictional

     10001   0.3031E+01   0.0000E+00                               0.5301E+00
         2   0.0000E+00   0.0000E+00                               0.0000E+00
     10013  -0.3510E+00   0.0000E+00                               0.2036E+00

 summary   total slave side= 0.2680300E+01
           total mastr side= 0.0000000E+00
           total energy    = 0.2680300E+01
           friction energy = 0.7336867E+00






 contact interface energy file, time= 0.3998737E+00
    #             slave       master       cycle=          1945    frictional

     10001   0.3153E+01   0.0000E+00                               0.5343E+00
         2   0.0000E+00   0.0000E+00                               0.0000E+00
     10013  -0.3493E+00   0.0000E+00                               0.2038E+00

 summary   total slave side= 0.2803466E+01
           total mastr side= 0.0000000E+00
           total energy    = 0.2803466E+01
           friction energy = 0.7380907E+00






 contact interface energy file, time= 0.4048938E+00
    #             slave       master       cycle=          1970    frictional

     10001   0.3302E+01   0.0000E+00                               0.5398E+00
         2   0.0000E+00   0.0000E+00                               0.0000E+00
     10013  -0.3472E+00   0.0000E+00                               0.2040E+00

 summary   total slave side= 0.2954650E+01
           total mastr side= 0.0000000E+00
           total energy    = 0.2954650E+01
           friction energy = 0.7437740E+00






 contact interface energy file, time= 0.4099132E+00
    #             slave       master       cycle=          1995    frictional

     10001   0.3417E+01   0.0000E+00                               0.5437E+00
         2   0.0000E+00   0.0000E+00                               0.0000E+00
     10013  -0.3465E+00   0.0000E+00                               0.2040E+00

 summary   total slave side= 0.3070268E+01
           total mastr side= 0.0000000E+00
           total energy    = 0.3070268E+01
           friction energy = 0.7476760E+00






 contact interface energy file, time= 0.4149376E+00
    #             slave       master       cycle=          2020    frictional

     10001   0.3470E+01   0.0000E+00                               0.5481E+00
         2   0.0000E+00   0.0000E+00                               0.0000E+00
     10013  -0.3461E+00   0.0000E+00                               0.2042E+00

 summary   total slave side= 0.3124056E+01
           total mastr side= 0.0000000E+00
           total energy    = 0.3124056E+01
           friction energy = 0.7523641E+00






 contact interface energy file, time= 0.4199808E+00
    #             slave       master       cycle=          2045    frictional

     10001   0.3364E+01   0.0000E+00                               0.5546E+00
         2   0.0000E+00   0.0000E+00                               0.0000E+00
     10013  -0.3471E+00   0.0000E+00                               0.2047E+00

 summary   total slave side= 0.3016846E+01
           total mastr side= 0.0000000E+00
           total energy    = 0.3016846E+01
           friction energy = 0.7592599E+00






 contact interface energy file, time= 0.4248042E+00
    #             slave       master       cycle=          2069    frictional

     10001   0.3233E+01   0.0000E+00                               0.5568E+00
         2   0.0000E+00   0.0000E+00                               0.0000E+00
     10013  -0.3479E+00   0.0000E+00                               0.2048E+00

 summary   total slave side= 0.2885630E+01
           total mastr side= 0.0000000E+00
           total energy    = 0.2885630E+01
           friction energy = 0.7615927E+00






 contact interface energy file, time= 0.4298241E+00
    #             slave       master       cycle=          2094    frictional

     10001   0.3176E+01   0.0000E+00                               0.5579E+00
         2   0.0000E+00   0.0000E+00                               0.0000E+00
     10013  -0.3482E+00   0.0000E+00                               0.2049E+00

 summary   total slave side= 0.2828218E+01
           total mastr side= 0.0000000E+00
           total energy    = 0.2828218E+01
           friction energy = 0.7627519E+00






 contact interface energy file, time= 0.4348462E+00
    #             slave       master       cycle=          2119    frictional

     10001   0.3162E+01   0.0000E+00                               0.5655E+00
         2   0.0000E+00   0.0000E+00                               0.0000E+00
     10013  -0.3482E+00   0.0000E+00                               0.2050E+00

 summary   total slave side= 0.2813847E+01
           total mastr side= 0.0000000E+00
           total energy    = 0.2813847E+01
           friction energy = 0.7704862E+00






 contact interface energy file, time= 0.4398729E+00
    #             slave       master       cycle=          2144    frictional

     10001   0.3199E+01   0.0000E+00                               0.5682E+00
         2   0.0000E+00   0.0000E+00                               0.0000E+00
     10013  -0.3480E+00   0.0000E+00                               0.2050E+00

 summary   total slave side= 0.2850947E+01
           total mastr side= 0.0000000E+00
           total energy    = 0.2850947E+01
           friction energy = 0.7731948E+00






 contact interface energy file, time= 0.4448966E+00
    #             slave       master       cycle=          2169    frictional

     10001   0.3322E+01   0.0000E+00                               0.5702E+00
         2   0.0000E+00   0.0000E+00                               0.0000E+00
     10013  -0.3469E+00   0.0000E+00                               0.2051E+00

 summary   total slave side= 0.2975184E+01
           total mastr side= 0.0000000E+00
           total energy    = 0.2975184E+01
           friction energy = 0.7752626E+00






 contact interface energy file, time= 0.4499195E+00
    #             slave       master       cycle=          2194    frictional

     10001   0.3435E+01   0.0000E+00                               0.5719E+00
         2   0.0000E+00   0.0000E+00                               0.0000E+00
     10013  -0.3456E+00   0.0000E+00                               0.2052E+00

 summary   total slave side= 0.3089320E+01
           total mastr side= 0.0000000E+00
           total energy    = 0.3089320E+01
           friction energy = 0.7770557E+00






 contact interface energy file, time= 0.4549503E+00
    #             slave       master       cycle=          2219    frictional

     10001   0.3500E+01   0.0000E+00                               0.5775E+00
         2   0.0000E+00   0.0000E+00                               0.0000E+00
     10013  -0.3442E+00   0.0000E+00                               0.2054E+00

 summary   total slave side= 0.3155654E+01
           total mastr side= 0.0000000E+00
           total energy    = 0.3155654E+01
           friction energy = 0.7828511E+00






 contact interface energy file, time= 0.4599782E+00
    #             slave       master       cycle=          2244    frictional

     10001   0.3510E+01   0.0000E+00                               0.5875E+00
         2   0.0000E+00   0.0000E+00                               0.0000E+00
     10013  -0.3441E+00   0.0000E+00                               0.2059E+00

 summary   total slave side= 0.3165661E+01
           total mastr side= 0.0000000E+00
           total energy    = 0.3165661E+01
           friction energy = 0.7934023E+00






 contact interface energy file, time= 0.4648097E+00
    #             slave       master       cycle=          2268    frictional

     10001   0.3428E+01   0.0000E+00                               0.5968E+00
         2   0.0000E+00   0.0000E+00                               0.0000E+00
     10013  -0.3449E+00   0.0000E+00                               0.2064E+00

 summary   total slave side= 0.3083225E+01
           total mastr side= 0.0000000E+00
           total energy    = 0.3083225E+01
           friction energy = 0.8031967E+00






 contact interface energy file, time= 0.4698350E+00
    #             slave       master       cycle=          2293    frictional

     10001   0.3328E+01   0.0000E+00                               0.5992E+00
         2   0.0000E+00   0.0000E+00                               0.0000E+00
     10013  -0.3454E+00   0.0000E+00                               0.2066E+00

 summary   total slave side= 0.2982368E+01
           total mastr side= 0.0000000E+00
           total energy    = 0.2982368E+01
           friction energy = 0.8058179E+00






 contact interface energy file, time= 0.4748575E+00
    #             slave       master       cycle=          2318    frictional

     10001   0.3275E+01   0.0000E+00                               0.5997E+00
         2   0.0000E+00   0.0000E+00                               0.0000E+00
     10013  -0.3453E+00   0.0000E+00                               0.2067E+00

 summary   total slave side= 0.2929361E+01
           total mastr side= 0.0000000E+00
           total energy    = 0.2929361E+01
           friction energy = 0.8063982E+00






 contact interface energy file, time= 0.4798741E+00
    #             slave       master       cycle=          2343    frictional

     10001   0.3268E+01   0.0000E+00                               0.6023E+00
         2   0.0000E+00   0.0000E+00                               0.0000E+00
     10013  -0.3452E+00   0.0000E+00                               0.2069E+00

 summary   total slave side= 0.2922679E+01
           total mastr side= 0.0000000E+00
           total energy    = 0.2922679E+01
           friction energy = 0.8091813E+00






 contact interface energy file, time= 0.4848992E+00
    #             slave       master       cycle=          2368    frictional

     10001   0.3322E+01   0.0000E+00                               0.6038E+00
         2   0.0000E+00   0.0000E+00                               0.0000E+00
     10013  -0.3450E+00   0.0000E+00                               0.2069E+00

 summary   total slave side= 0.2976928E+01
           total mastr side= 0.0000000E+00
           total energy    = 0.2976928E+01
           friction energy = 0.8107330E+00






 contact interface energy file, time= 0.4899219E+00
    #             slave       master       cycle=          2393    frictional

     10001   0.3432E+01   0.0000E+00                               0.6056E+00
         2   0.0000E+00   0.0000E+00                               0.0000E+00
     10013  -0.3441E+00   0.0000E+00                               0.2070E+00

 summary   total slave side= 0.3088109E+01
           total mastr side= 0.0000000E+00
           total energy    = 0.3088109E+01
           friction energy = 0.8126788E+00






 contact interface energy file, time= 0.4949424E+00
    #             slave       master       cycle=          2418    frictional

     10001   0.3525E+01   0.0000E+00                               0.6075E+00
         2   0.0000E+00   0.0000E+00                               0.0000E+00
     10013  -0.3422E+00   0.0000E+00                               0.2074E+00

 summary   total slave side= 0.3182546E+01
           total mastr side= 0.0000000E+00
           total energy    = 0.3182546E+01
           friction energy = 0.8149265E+00






 contact interface energy file, time= 0.4999598E+00
    #             slave       master       cycle=          2443    frictional

     10001   0.3584E+01   0.0000E+00                               0.6217E+00
         2   0.0000E+00   0.0000E+00                               0.0000E+00
     10013  -0.3404E+00   0.0000E+00                               0.2083E+00

 summary   total slave side= 0.3243949E+01
           total mastr side= 0.0000000E+00
           total energy    = 0.3243949E+01
           friction energy = 0.8299209E+00






 contact interface energy file, time= 0.5049835E+00
    #             slave       master       cycle=          2468    frictional

     10001   0.3574E+01   0.0000E+00                               0.6314E+00
         2   0.0000E+00   0.0000E+00                               0.0000E+00
     10013  -0.3405E+00   0.0000E+00                               0.2087E+00

 summary   total slave side= 0.3233266E+01
           total mastr side= 0.0000000E+00
           total energy    = 0.3233266E+01
           friction energy = 0.8400978E+00






 contact interface energy file, time= 0.5098152E+00
    #             slave       master       cycle=          2492    frictional

     10001   0.3489E+01   0.0000E+00                               0.6306E+00
         2   0.0000E+00   0.0000E+00                               0.0000E+00
     10013  -0.3417E+00   0.0000E+00                               0.2088E+00

 summary   total slave side= 0.3147003E+01
           total mastr side= 0.0000000E+00
           total energy    = 0.3147003E+01
           friction energy = 0.8394403E+00






 contact interface energy file, time= 0.5148509E+00
    #             slave       master       cycle=          2517    frictional

     10001   0.3412E+01   0.0000E+00                               0.6322E+00
         2   0.0000E+00   0.0000E+00                               0.0000E+00
     10013  -0.3428E+00   0.0000E+00                               0.2089E+00

 summary   total slave side= 0.3068866E+01
           total mastr side= 0.0000000E+00
           total energy    = 0.3068866E+01
           friction energy = 0.8410712E+00






 contact interface energy file, time= 0.5198684E+00
    #             slave       master       cycle=          2542    frictional

     10001   0.3385E+01   0.0000E+00                               0.6345E+00
         2   0.0000E+00   0.0000E+00                               0.0000E+00
     10013  -0.3428E+00   0.0000E+00                               0.2091E+00

 summary   total slave side= 0.3042036E+01
           total mastr side= 0.0000000E+00
           total energy    = 0.3042036E+01
           friction energy = 0.8436538E+00






 contact interface energy file, time= 0.5248879E+00
    #             slave       master       cycle=          2567    frictional

     10001   0.3410E+01   0.0000E+00                               0.6400E+00
         2   0.0000E+00   0.0000E+00                               0.0000E+00
     10013  -0.3423E+00   0.0000E+00                               0.2092E+00

 summary   total slave side= 0.3067875E+01
           total mastr side= 0.0000000E+00
           total energy    = 0.3067875E+01
           friction energy = 0.8492705E+00






 contact interface energy file, time= 0.5299200E+00
    #             slave       master       cycle=          2592    frictional

     10001   0.3481E+01   0.0000E+00                               0.6460E+00
         2   0.0000E+00   0.0000E+00                               0.0000E+00
     10013  -0.3409E+00   0.0000E+00                               0.2094E+00

 summary   total slave side= 0.3140147E+01
           total mastr side= 0.0000000E+00
           total energy    = 0.3140147E+01
           friction energy = 0.8553777E+00






 contact interface energy file, time= 0.5349426E+00
    #             slave       master       cycle=          2617    frictional

     10001   0.3575E+01   0.0000E+00                               0.6477E+00
         2   0.0000E+00   0.0000E+00                               0.0000E+00
     10013  -0.3397E+00   0.0000E+00                               0.2095E+00

 summary   total slave side= 0.3235042E+01
           total mastr side= 0.0000000E+00
           total energy    = 0.3235042E+01
           friction energy = 0.8571854E+00






 contact interface energy file, time= 0.5399622E+00
    #             slave       master       cycle=          2642    frictional

     10001   0.3626E+01   0.0000E+00                               0.6478E+00
         2   0.0000E+00   0.0000E+00                               0.0000E+00
     10013  -0.3390E+00   0.0000E+00                               0.2096E+00

 summary   total slave side= 0.3287176E+01
           total mastr side= 0.0000000E+00
           total energy    = 0.3287176E+01
           friction energy = 0.8574099E+00






 contact interface energy file, time= 0.5449868E+00
    #             slave       master       cycle=          2667    frictional

     10001   0.3627E+01   0.0000E+00                               0.6500E+00
         2   0.0000E+00   0.0000E+00                               0.0000E+00
     10013  -0.3388E+00   0.0000E+00                               0.2098E+00

 summary   total slave side= 0.3288206E+01
           total mastr side= 0.0000000E+00
           total energy    = 0.3288206E+01
           friction energy = 0.8598077E+00






 contact interface energy file, time= 0.5498211E+00
    #             slave       master       cycle=          2691    frictional

     10001   0.3581E+01   0.0000E+00                               0.6510E+00
         2   0.0000E+00   0.0000E+00                               0.0000E+00
     10013  -0.3393E+00   0.0000E+00                               0.2099E+00

 summary   total slave side= 0.3241510E+01
           total mastr side= 0.0000000E+00
           total energy    = 0.3241510E+01
           friction energy = 0.8608285E+00






 contact interface energy file, time= 0.5548420E+00
    #             slave       master       cycle=          2716    frictional

     10001   0.3518E+01   0.0000E+00                               0.6507E+00
         2   0.0000E+00   0.0000E+00                               0.0000E+00
     10013  -0.3404E+00   0.0000E+00                               0.2099E+00

 summary   total slave side= 0.3178083E+01
           total mastr side= 0.0000000E+00
           total energy    = 0.3178083E+01
           friction energy = 0.8605802E+00






 contact interface energy file, time= 0.5598612E+00
    #             slave       master       cycle=          2741    frictional

     10001   0.3492E+01   0.0000E+00                               0.6521E+00
         2   0.0000E+00   0.0000E+00                               0.0000E+00
     10013  -0.3408E+00   0.0000E+00                               0.2099E+00

 summary   total slave side= 0.3151658E+01
           total mastr side= 0.0000000E+00
           total energy    = 0.3151658E+01
           friction energy = 0.8619498E+00






 contact interface energy file, time= 0.5648861E+00
    #             slave       master       cycle=          2766    frictional

     10001   0.3502E+01   0.0000E+00                               0.6525E+00
         2   0.0000E+00   0.0000E+00                               0.0000E+00
     10013  -0.3402E+00   0.0000E+00                               0.2100E+00

 summary   total slave side= 0.3161830E+01
           total mastr side= 0.0000000E+00
           total energy    = 0.3161830E+01
           friction energy = 0.8625035E+00






 contact interface energy file, time= 0.5699170E+00
    #             slave       master       cycle=          2791    frictional

     10001   0.3546E+01   0.0000E+00                               0.6524E+00
         2   0.0000E+00   0.0000E+00                               0.0000E+00
     10013  -0.3394E+00   0.0000E+00                               0.2100E+00

 summary   total slave side= 0.3206398E+01
           total mastr side= 0.0000000E+00
           total energy    = 0.3206398E+01
           friction energy = 0.8624202E+00






 contact interface energy file, time= 0.5749511E+00
    #             slave       master       cycle=          2816    frictional

     10001   0.3616E+01   0.0000E+00                               0.6532E+00
         2   0.0000E+00   0.0000E+00                               0.0000E+00
     10013  -0.3383E+00   0.0000E+00                               0.2100E+00

 summary   total slave side= 0.3277789E+01
           total mastr side= 0.0000000E+00
           total energy    = 0.3277789E+01
           friction energy = 0.8632620E+00






 contact interface energy file, time= 0.5799749E+00
    #             slave       master       cycle=          2841    frictional

     10001   0.3669E+01   0.0000E+00                               0.6568E+00
         2   0.0000E+00   0.0000E+00                               0.0000E+00
     10013  -0.3378E+00   0.0000E+00                               0.2100E+00

 summary   total slave side= 0.3331188E+01
           total mastr side= 0.0000000E+00
           total energy    = 0.3331188E+01
           friction energy = 0.8667822E+00






 contact interface energy file, time= 0.5849998E+00
    #             slave       master       cycle=          2866    frictional

     10001   0.3687E+01   0.0000E+00                               0.6589E+00
         2   0.0000E+00   0.0000E+00                               0.0000E+00
     10013  -0.3378E+00   0.0000E+00                               0.2100E+00

 summary   total slave side= 0.3349300E+01
           total mastr side= 0.0000000E+00
           total energy    = 0.3349300E+01
           friction energy = 0.8688908E+00






 contact interface energy file, time= 0.5898275E+00
    #             slave       master       cycle=          2890    frictional

     10001   0.3666E+01   0.0000E+00                               0.6592E+00
         2   0.0000E+00   0.0000E+00                               0.0000E+00
     10013  -0.3377E+00   0.0000E+00                               0.2101E+00

 summary   total slave side= 0.3328190E+01
           total mastr side= 0.0000000E+00
           total energy    = 0.3328190E+01
           friction energy = 0.8693124E+00






 contact interface energy file, time= 0.5948489E+00
    #             slave       master       cycle=          2915    frictional

     10001   0.3624E+01   0.0000E+00                               0.6572E+00
         2   0.0000E+00   0.0000E+00                               0.0000E+00
     10013  -0.3384E+00   0.0000E+00                               0.2101E+00

 summary   total slave side= 0.3285503E+01
           total mastr side= 0.0000000E+00
           total energy    = 0.3285503E+01
           friction energy = 0.8672828E+00






 contact interface energy file, time= 0.5998661E+00
    #             slave       master       cycle=          2940    frictional

     10001   0.3587E+01   0.0000E+00                               0.6575E+00
         2   0.0000E+00   0.0000E+00                               0.0000E+00
     10013  -0.3383E+00   0.0000E+00                               0.2101E+00

 summary   total slave side= 0.3248446E+01
           total mastr side= 0.0000000E+00
           total energy    = 0.3248446E+01
           friction energy = 0.8676141E+00






 contact interface energy file, time= 0.6048893E+00
    #             slave       master       cycle=          2965    frictional

     10001   0.3577E+01   0.0000E+00                               0.6582E+00
         2   0.0000E+00   0.0000E+00                               0.0000E+00
     10013  -0.3388E+00   0.0000E+00                               0.2102E+00

 summary   total slave side= 0.3237949E+01
           total mastr side= 0.0000000E+00
           total energy    = 0.3237949E+01
           friction energy = 0.8683405E+00






 contact interface energy file, time= 0.6099096E+00
    #             slave       master       cycle=          2990    frictional

     10001   0.3609E+01   0.0000E+00                               0.6592E+00
         2   0.0000E+00   0.0000E+00                               0.0000E+00
     10013  -0.3387E+00   0.0000E+00                               0.2102E+00

 summary   total slave side= 0.3270670E+01
           total mastr side= 0.0000000E+00
           total energy    = 0.3270670E+01
           friction energy = 0.8693324E+00






 contact interface energy file, time= 0.6149318E+00
    #             slave       master       cycle=          3015    frictional

     10001   0.3659E+01   0.0000E+00                               0.6588E+00
         2   0.0000E+00   0.0000E+00                               0.0000E+00
     10013  -0.3374E+00   0.0000E+00                               0.2102E+00

 summary   total slave side= 0.3322091E+01
           total mastr side= 0.0000000E+00
           total energy    = 0.3322091E+01
           friction energy = 0.8689233E+00






 contact interface energy file, time= 0.6199543E+00
    #             slave       master       cycle=          3040    frictional

     10001   0.3707E+01   0.0000E+00                               0.6596E+00
         2   0.0000E+00   0.0000E+00                               0.0000E+00
     10013  -0.3357E+00   0.0000E+00                               0.2103E+00

 summary   total slave side= 0.3370872E+01
           total mastr side= 0.0000000E+00
           total energy    = 0.3370872E+01
           friction energy = 0.8698883E+00






 contact interface energy file, time= 0.6249796E+00
    #             slave       master       cycle=          3065    frictional

     10001   0.3731E+01   0.0000E+00                               0.6628E+00
         2   0.0000E+00   0.0000E+00                               0.0000E+00
     10013  -0.3355E+00   0.0000E+00                               0.2102E+00

 summary   total slave side= 0.3395330E+01
           total mastr side= 0.0000000E+00
           total energy    = 0.3395330E+01
           friction energy = 0.8729925E+00






 contact interface energy file, time= 0.6298107E+00
    #             slave       master       cycle=          3089    frictional

     10001   0.3725E+01   0.0000E+00                               0.6671E+00
         2   0.0000E+00   0.0000E+00                               0.0000E+00
     10013  -0.3360E+00   0.0000E+00                               0.2103E+00

 summary   total slave side= 0.3388745E+01
           total mastr side= 0.0000000E+00
           total energy    = 0.3388745E+01
           friction energy = 0.8773620E+00






 contact interface energy file, time= 0.6348348E+00
    #             slave       master       cycle=          3114    frictional

     10001   0.3685E+01   0.0000E+00                               0.6711E+00
         2   0.0000E+00   0.0000E+00                               0.0000E+00
     10013  -0.3369E+00   0.0000E+00                               0.2105E+00

 summary   total slave side= 0.3348259E+01
           total mastr side= 0.0000000E+00
           total energy    = 0.3348259E+01
           friction energy = 0.8815984E+00






 contact interface energy file, time= 0.6398578E+00
    #             slave       master       cycle=          3139    frictional

     10001   0.3659E+01   0.0000E+00                               0.6733E+00
         2   0.0000E+00   0.0000E+00                               0.0000E+00
     10013  -0.3369E+00   0.0000E+00                               0.2105E+00

 summary   total slave side= 0.3321675E+01
           total mastr side= 0.0000000E+00
           total energy    = 0.3321675E+01
           friction energy = 0.8837915E+00






 contact interface energy file, time= 0.6448960E+00
    #             slave       master       cycle=          3164    frictional

     10001   0.3667E+01   0.0000E+00                               0.6723E+00
         2   0.0000E+00   0.0000E+00                               0.0000E+00
     10013  -0.3363E+00   0.0000E+00                               0.2106E+00

 summary   total slave side= 0.3331108E+01
           total mastr side= 0.0000000E+00
           total energy    = 0.3331108E+01
           friction energy = 0.8828847E+00






 contact interface energy file, time= 0.6499121E+00
    #             slave       master       cycle=          3189    frictional

     10001   0.3718E+01   0.0000E+00                               0.6698E+00
         2   0.0000E+00   0.0000E+00                               0.0000E+00
     10013  -0.3359E+00   0.0000E+00                               0.2106E+00

 summary   total slave side= 0.3381745E+01
           total mastr side= 0.0000000E+00
           total energy    = 0.3381745E+01
           friction energy = 0.8804165E+00






 contact interface energy file, time= 0.6549303E+00
    #             slave       master       cycle=          3214    frictional

     10001   0.3756E+01   0.0000E+00                               0.6695E+00
         2   0.0000E+00   0.0000E+00                               0.0000E+00
     10013  -0.3352E+00   0.0000E+00                               0.2106E+00

 summary   total slave side= 0.3420863E+01
           total mastr side= 0.0000000E+00
           total energy    = 0.3420863E+01
           friction energy = 0.8800784E+00






 contact interface energy file, time= 0.6599471E+00
    #             slave       master       cycle=          3239    frictional

     10001   0.3768E+01   0.0000E+00                               0.6720E+00
         2   0.0000E+00   0.0000E+00                               0.0000E+00
     10013  -0.3347E+00   0.0000E+00                               0.2107E+00

 summary   total slave side= 0.3433773E+01
           total mastr side= 0.0000000E+00
           total energy    = 0.3433773E+01
           friction energy = 0.8826569E+00






 contact interface energy file, time= 0.6649695E+00
    #             slave       master       cycle=          3264    frictional

     10001   0.3768E+01   0.0000E+00                               0.6751E+00
         2   0.0000E+00   0.0000E+00                               0.0000E+00
     10013  -0.3350E+00   0.0000E+00                               0.2108E+00

 summary   total slave side= 0.3432705E+01
           total mastr side= 0.0000000E+00
           total energy    = 0.3432705E+01
           friction energy = 0.8859659E+00






 contact interface energy file, time= 0.6699908E+00
    #             slave       master       cycle=          3289    frictional

     10001   0.3761E+01   0.0000E+00                               0.6773E+00
         2   0.0000E+00   0.0000E+00                               0.0000E+00
     10013  -0.3349E+00   0.0000E+00                               0.2109E+00

 summary   total slave side= 0.3425762E+01
           total mastr side= 0.0000000E+00
           total energy    = 0.3425762E+01
           friction energy = 0.8881987E+00






 contact interface energy file, time= 0.6748135E+00
    #             slave       master       cycle=          3313    frictional

     10001   0.3766E+01   0.0000E+00                               0.6789E+00
         2   0.0000E+00   0.0000E+00                               0.0000E+00
     10013  -0.3349E+00   0.0000E+00                               0.2110E+00

 summary   total slave side= 0.3430808E+01
           total mastr side= 0.0000000E+00
           total energy    = 0.3430808E+01
           friction energy = 0.8899303E+00






 contact interface energy file, time= 0.6798378E+00
    #             slave       master       cycle=          3338    frictional

     10001   0.3782E+01   0.0000E+00                               0.6819E+00
         2   0.0000E+00   0.0000E+00                               0.0000E+00
     10013  -0.3345E+00   0.0000E+00                               0.2110E+00

 summary   total slave side= 0.3447058E+01
           total mastr side= 0.0000000E+00
           total energy    = 0.3447058E+01
           friction energy = 0.8929178E+00






 contact interface energy file, time= 0.6848575E+00
    #             slave       master       cycle=          3363    frictional

     10001   0.3796E+01   0.0000E+00                               0.6811E+00
         2   0.0000E+00   0.0000E+00                               0.0000E+00
     10013  -0.3338E+00   0.0000E+00                               0.2111E+00

 summary   total slave side= 0.3462137E+01
           total mastr side= 0.0000000E+00
           total energy    = 0.3462137E+01
           friction energy = 0.8921415E+00






 contact interface energy file, time= 0.6898786E+00
    #             slave       master       cycle=          3388    frictional

     10001   0.3802E+01   0.0000E+00                               0.6806E+00
         2   0.0000E+00   0.0000E+00                               0.0000E+00
     10013  -0.3334E+00   0.0000E+00                               0.2112E+00

 summary   total slave side= 0.3468662E+01
           total mastr side= 0.0000000E+00
           total energy    = 0.3468662E+01
           friction energy = 0.8918005E+00






 contact interface energy file, time= 0.6949128E+00
    #             slave       master       cycle=          3413    frictional

     10001   0.3797E+01   0.0000E+00                               0.6845E+00
         2   0.0000E+00   0.0000E+00                               0.0000E+00
     10013  -0.3330E+00   0.0000E+00                               0.2112E+00

 summary   total slave side= 0.3463857E+01
           total mastr side= 0.0000000E+00
           total energy    = 0.3463857E+01
           friction energy = 0.8957700E+00






 contact interface energy file, time= 0.6999496E+00
    #             slave       master       cycle=          3438    frictional

     10001   0.3801E+01   0.0000E+00                               0.6900E+00
         2   0.0000E+00   0.0000E+00                               0.0000E+00
     10013  -0.3336E+00   0.0000E+00                               0.2112E+00

 summary   total slave side= 0.3467568E+01
           total mastr side= 0.0000000E+00
           total energy    = 0.3467568E+01
           friction energy = 0.9012099E+00






 contact interface energy file, time= 0.7049745E+00
    #             slave       master       cycle=          3463    frictional

     10001   0.3826E+01   0.0000E+00                               0.6924E+00
         2   0.0000E+00   0.0000E+00                               0.0000E+00
     10013  -0.3334E+00   0.0000E+00                               0.2113E+00

 summary   total slave side= 0.3492122E+01
           total mastr side= 0.0000000E+00
           total energy    = 0.3492122E+01
           friction energy = 0.9036391E+00






 contact interface energy file, time= 0.7099901E+00
    #             slave       master       cycle=          3488    frictional

     10001   0.3841E+01   0.0000E+00                               0.6898E+00
         2   0.0000E+00   0.0000E+00                               0.0000E+00
     10013  -0.3332E+00   0.0000E+00                               0.2112E+00

 summary   total slave side= 0.3507894E+01
           total mastr side= 0.0000000E+00
           total energy    = 0.3507894E+01
           friction energy = 0.9009781E+00






 contact interface energy file, time= 0.7148054E+00
    #             slave       master       cycle=          3512    frictional

     10001   0.3842E+01   0.0000E+00                               0.6884E+00
         2   0.0000E+00   0.0000E+00                               0.0000E+00
     10013  -0.3333E+00   0.0000E+00                               0.2112E+00

 summary   total slave side= 0.3508747E+01
           total mastr side= 0.0000000E+00
           total energy    = 0.3508747E+01
           friction energy = 0.8996037E+00






 contact interface energy file, time= 0.7198227E+00
    #             slave       master       cycle=          3537    frictional

     10001   0.3875E+01   0.0000E+00                               0.6903E+00
         2   0.0000E+00   0.0000E+00                               0.0000E+00
     10013  -0.3321E+00   0.0000E+00                               0.2113E+00

 summary   total slave side= 0.3542607E+01
           total mastr side= 0.0000000E+00
           total energy    = 0.3542607E+01
           friction energy = 0.9015695E+00






 contact interface energy file, time= 0.7248396E+00
    #             slave       master       cycle=          3562    frictional

     10001   0.3918E+01   0.0000E+00                               0.6927E+00
         2   0.0000E+00   0.0000E+00                               0.0000E+00
     10013  -0.3317E+00   0.0000E+00                               0.2114E+00

 summary   total slave side= 0.3586573E+01
           total mastr side= 0.0000000E+00
           total energy    = 0.3586573E+01
           friction energy = 0.9040350E+00






 contact interface energy file, time= 0.7298587E+00
[...]

     10001   0.2085E+02   0.0000E+00                               0.2068E+02
         2   0.0000E+00   0.0000E+00                               0.0000E+00
     10013   0.6311E+00   0.0000E+00                               0.1460E+01

 summary   total slave side= 0.2147675E+02
           total mastr side= 0.0000000E+00
           total energy    = 0.2147675E+02
           friction energy = 0.2214012E+02






 contact interface energy file, time= 0.4824844E+01
    #             slave       master       cycle=         24063    frictional

     10001   0.2091E+02   0.0000E+00                               0.2075E+02
         2   0.0000E+00   0.0000E+00                               0.0000E+00
     10013   0.6336E+00   0.0000E+00                               0.1463E+01

 summary   total slave side= 0.2154077E+02
           total mastr side= 0.0000000E+00
           total energy    = 0.2154077E+02
           friction energy = 0.2221611E+02






 contact interface energy file, time= 0.4829807E+01
    #             slave       master       cycle=         24088    frictional

     10001   0.2096E+02   0.0000E+00                               0.2082E+02
         2   0.0000E+00   0.0000E+00                               0.0000E+00
     10013   0.6359E+00   0.0000E+00                               0.1465E+01

 summary   total slave side= 0.2159500E+02
           total mastr side= 0.0000000E+00
           total energy    = 0.2159500E+02
           friction energy = 0.2228029E+02






 contact interface energy file, time= 0.4834966E+01
    #             slave       master       cycle=         24114    frictional

     10001   0.2100E+02   0.0000E+00                               0.2086E+02
         2   0.0000E+00   0.0000E+00                               0.0000E+00
     10013   0.6377E+00   0.0000E+00                               0.1467E+01

 summary   total slave side= 0.2163722E+02
           total mastr side= 0.0000000E+00
           total energy    = 0.2163722E+02
           friction energy = 0.2232928E+02






 contact interface energy file, time= 0.4839937E+01
    #             slave       master       cycle=         24139    frictional

     10001   0.2103E+02   0.0000E+00                               0.2089E+02
         2   0.0000E+00   0.0000E+00                               0.0000E+00
     10013   0.6391E+00   0.0000E+00                               0.1468E+01

 summary   total slave side= 0.2166686E+02
           total mastr side= 0.0000000E+00
           total energy    = 0.2166686E+02
           friction energy = 0.2236270E+02






 contact interface energy file, time= 0.4844893E+01
    #             slave       master       cycle=         24164    frictional

     10001   0.2105E+02   0.0000E+00                               0.2092E+02
         2   0.0000E+00   0.0000E+00                               0.0000E+00
     10013   0.6400E+00   0.0000E+00                               0.1469E+01

 summary   total slave side= 0.2168653E+02
           total mastr side= 0.0000000E+00
           total energy    = 0.2168653E+02
           friction energy = 0.2238591E+02






 contact interface energy file, time= 0.4849870E+01
    #             slave       master       cycle=         24189    frictional

     10001   0.2105E+02   0.0000E+00                               0.2093E+02
         2   0.0000E+00   0.0000E+00                               0.0000E+00
     10013   0.6406E+00   0.0000E+00                               0.1470E+01

 summary   total slave side= 0.2169518E+02
           total mastr side= 0.0000000E+00
           total energy    = 0.2169518E+02
           friction energy = 0.2239981E+02






 contact interface energy file, time= 0.4854850E+01
    #             slave       master       cycle=         24214    frictional

     10001   0.2106E+02   0.0000E+00                               0.2094E+02
         2   0.0000E+00   0.0000E+00                               0.0000E+00
     10013   0.6412E+00   0.0000E+00                               0.1470E+01

 summary   total slave side= 0.2170265E+02
           total mastr side= 0.0000000E+00
           total energy    = 0.2170265E+02
           friction energy = 0.2241225E+02






 contact interface energy file, time= 0.4859825E+01
    #             slave       master       cycle=         24239    frictional

     10001   0.2107E+02   0.0000E+00                               0.2096E+02
         2   0.0000E+00   0.0000E+00                               0.0000E+00
     10013   0.6419E+00   0.0000E+00                               0.1471E+01

 summary   total slave side= 0.2171401E+02
           total mastr side= 0.0000000E+00
           total energy    = 0.2171401E+02
           friction energy = 0.2242707E+02






 contact interface energy file, time= 0.4864803E+01
    #             slave       master       cycle=         24264    frictional

     10001   0.2109E+02   0.0000E+00                               0.2098E+02
         2   0.0000E+00   0.0000E+00                               0.0000E+00
     10013   0.6425E+00   0.0000E+00                               0.1472E+01

 summary   total slave side= 0.2172974E+02
           total mastr side= 0.0000000E+00
           total energy    = 0.2172974E+02
           friction energy = 0.2244763E+02






 contact interface energy file, time= 0.4869984E+01
    #             slave       master       cycle=         24290    frictional

     10001   0.2111E+02   0.0000E+00                               0.2101E+02
         2   0.0000E+00   0.0000E+00                               0.0000E+00
     10013   0.6441E+00   0.0000E+00                               0.1473E+01

 summary   total slave side= 0.2175802E+02
           total mastr side= 0.0000000E+00
           total energy    = 0.2175802E+02
           friction energy = 0.2248126E+02






 contact interface energy file, time= 0.4874946E+01
    #             slave       master       cycle=         24315    frictional

     10001   0.2115E+02   0.0000E+00                               0.2105E+02
         2   0.0000E+00   0.0000E+00                               0.0000E+00
     10013   0.6458E+00   0.0000E+00                               0.1475E+01

 summary   total slave side= 0.2179945E+02
           total mastr side= 0.0000000E+00
           total energy    = 0.2179945E+02
           friction energy = 0.2252451E+02






 contact interface energy file, time= 0.4879920E+01
    #             slave       master       cycle=         24340    frictional

     10001   0.2121E+02   0.0000E+00                               0.2110E+02
         2   0.0000E+00   0.0000E+00                               0.0000E+00
     10013   0.6482E+00   0.0000E+00                               0.1477E+01

 summary   total slave side= 0.2185603E+02
           total mastr side= 0.0000000E+00
           total energy    = 0.2185603E+02
           friction energy = 0.2258017E+02






 contact interface energy file, time= 0.4884874E+01
    #             slave       master       cycle=         24365    frictional

     10001   0.2126E+02   0.0000E+00                               0.2116E+02
         2   0.0000E+00   0.0000E+00                               0.0000E+00
     10013   0.6508E+00   0.0000E+00                               0.1480E+01

 summary   total slave side= 0.2191439E+02
           total mastr side= 0.0000000E+00
           total energy    = 0.2191439E+02
           friction energy = 0.2264208E+02






 contact interface energy file, time= 0.4889841E+01
    #             slave       master       cycle=         24390    frictional

     10001   0.2133E+02   0.0000E+00                               0.2123E+02
         2   0.0000E+00   0.0000E+00                               0.0000E+00
     10013   0.6537E+00   0.0000E+00                               0.1483E+01

 summary   total slave side= 0.2198047E+02
           total mastr side= 0.0000000E+00
           total energy    = 0.2198047E+02
           friction energy = 0.2271043E+02






 contact interface energy file, time= 0.4894805E+01
    #             slave       master       cycle=         24415    frictional

     10001   0.2140E+02   0.0000E+00                               0.2130E+02
         2   0.0000E+00   0.0000E+00                               0.0000E+00
     10013   0.6566E+00   0.0000E+00                               0.1486E+01

 summary   total slave side= 0.2205303E+02
           total mastr side= 0.0000000E+00
           total energy    = 0.2205303E+02
           friction energy = 0.2278174E+02






 contact interface energy file, time= 0.4899959E+01
    #             slave       master       cycle=         24441    frictional

     10001   0.2146E+02   0.0000E+00                               0.2136E+02
         2   0.0000E+00   0.0000E+00                               0.0000E+00
     10013   0.6597E+00   0.0000E+00                               0.1488E+01

 summary   total slave side= 0.2212424E+02
           total mastr side= 0.0000000E+00
           total energy    = 0.2212424E+02
           friction energy = 0.2285277E+02






 contact interface energy file, time= 0.4904925E+01
    #             slave       master       cycle=         24466    frictional

     10001   0.2152E+02   0.0000E+00                               0.2143E+02
         2   0.0000E+00   0.0000E+00                               0.0000E+00
     10013   0.6621E+00   0.0000E+00                               0.1491E+01

 summary   total slave side= 0.2217855E+02
           total mastr side= 0.0000000E+00
           total energy    = 0.2217855E+02
           friction energy = 0.2291774E+02






 contact interface energy file, time= 0.4909887E+01
    #             slave       master       cycle=         24491    frictional

     10001   0.2156E+02   0.0000E+00                               0.2148E+02
         2   0.0000E+00   0.0000E+00                               0.0000E+00
     10013   0.6642E+00   0.0000E+00                               0.1493E+01

 summary   total slave side= 0.2222128E+02
           total mastr side= 0.0000000E+00
           total energy    = 0.2222128E+02
           friction energy = 0.2297629E+02






 contact interface energy file, time= 0.4914850E+01
    #             slave       master       cycle=         24516    frictional

     10001   0.2159E+02   0.0000E+00                               0.2153E+02
         2   0.0000E+00   0.0000E+00                               0.0000E+00
     10013   0.6656E+00   0.0000E+00                               0.1495E+01

 summary   total slave side= 0.2225299E+02
           total mastr side= 0.0000000E+00
           total energy    = 0.2225299E+02
           friction energy = 0.2302040E+02






 contact interface energy file, time= 0.4919817E+01
    #             slave       master       cycle=         24541    frictional

     10001   0.2161E+02   0.0000E+00                               0.2156E+02
         2   0.0000E+00   0.0000E+00                               0.0000E+00
     10013   0.6668E+00   0.0000E+00                               0.1496E+01

 summary   total slave side= 0.2227803E+02
           total mastr side= 0.0000000E+00
           total energy    = 0.2227803E+02
           friction energy = 0.2305107E+02






 contact interface energy file, time= 0.4924968E+01
    #             slave       master       cycle=         24567    frictional

     10001   0.2163E+02   0.0000E+00                               0.2158E+02
         2   0.0000E+00   0.0000E+00                               0.0000E+00
     10013   0.6677E+00   0.0000E+00                               0.1497E+01

 summary   total slave side= 0.2229621E+02
           total mastr side= 0.0000000E+00
           total energy    = 0.2229621E+02
           friction energy = 0.2307394E+02






 contact interface energy file, time= 0.4929944E+01
    #             slave       master       cycle=         24592    frictional

     10001   0.2164E+02   0.0000E+00                               0.2159E+02
         2   0.0000E+00   0.0000E+00                               0.0000E+00
     10013   0.6685E+00   0.0000E+00                               0.1497E+01

 summary   total slave side= 0.2230540E+02
           total mastr side= 0.0000000E+00
           total energy    = 0.2230540E+02
           friction energy = 0.2308927E+02






 contact interface energy file, time= 0.4934913E+01
    #             slave       master       cycle=         24617    frictional

     10001   0.2165E+02   0.0000E+00                               0.2161E+02
         2   0.0000E+00   0.0000E+00                               0.0000E+00
     10013   0.6691E+00   0.0000E+00                               0.1498E+01

 summary   total slave side= 0.2231428E+02
           total mastr side= 0.0000000E+00
           total energy    = 0.2231428E+02
           friction energy = 0.2310455E+02






 contact interface energy file, time= 0.4939881E+01
    #             slave       master       cycle=         24642    frictional

     10001   0.2166E+02   0.0000E+00                               0.2163E+02
         2   0.0000E+00   0.0000E+00                               0.0000E+00
     10013   0.6701E+00   0.0000E+00                               0.1499E+01

 summary   total slave side= 0.2233055E+02
           total mastr side= 0.0000000E+00
           total energy    = 0.2233055E+02
           friction energy = 0.2312741E+02






 contact interface energy file, time= 0.4944853E+01
    #             slave       master       cycle=         24667    frictional

     10001   0.2168E+02   0.0000E+00                               0.2166E+02
         2   0.0000E+00   0.0000E+00                               0.0000E+00
     10013   0.6712E+00   0.0000E+00                               0.1500E+01

 summary   total slave side= 0.2235196E+02
           total mastr side= 0.0000000E+00
           total energy    = 0.2235196E+02
           friction energy = 0.2315635E+02






 contact interface energy file, time= 0.4949822E+01
    #             slave       master       cycle=         24692    frictional

     10001   0.2172E+02   0.0000E+00                               0.2170E+02
         2   0.0000E+00   0.0000E+00                               0.0000E+00
     10013   0.6728E+00   0.0000E+00                               0.1502E+01

 summary   total slave side= 0.2238916E+02
           total mastr side= 0.0000000E+00
           total energy    = 0.2238916E+02
           friction energy = 0.2320019E+02






 contact interface energy file, time= 0.4954980E+01
    #             slave       master       cycle=         24718    frictional

     10001   0.2177E+02   0.0000E+00                               0.2176E+02
         2   0.0000E+00   0.0000E+00                               0.0000E+00
     10013   0.6753E+00   0.0000E+00                               0.1504E+01

 summary   total slave side= 0.2244439E+02
           total mastr side= 0.0000000E+00
           total energy    = 0.2244439E+02
           friction energy = 0.2326023E+02






 contact interface energy file, time= 0.4959947E+01
    #             slave       master       cycle=         24743    frictional

     10001   0.2183E+02   0.0000E+00                               0.2182E+02
         2   0.0000E+00   0.0000E+00                               0.0000E+00
     10013   0.6781E+00   0.0000E+00                               0.1507E+01

 summary   total slave side= 0.2250385E+02
           total mastr side= 0.0000000E+00
           total energy    = 0.2250385E+02
           friction energy = 0.2332545E+02






 contact interface energy file, time= 0.4964916E+01
    #             slave       master       cycle=         24768    frictional

     10001   0.2189E+02   0.0000E+00                               0.2189E+02
         2   0.0000E+00   0.0000E+00                               0.0000E+00
     10013   0.6812E+00   0.0000E+00                               0.1510E+01

 summary   total slave side= 0.2257044E+02
           total mastr side= 0.0000000E+00
           total energy    = 0.2257044E+02
           friction energy = 0.2339712E+02






 contact interface energy file, time= 0.4969887E+01
    #             slave       master       cycle=         24793    frictional

     10001   0.2196E+02   0.0000E+00                               0.2196E+02
         2   0.0000E+00   0.0000E+00                               0.0000E+00
     10013   0.6843E+00   0.0000E+00                               0.1513E+01

 summary   total slave side= 0.2264233E+02
           total mastr side= 0.0000000E+00
           total energy    = 0.2264233E+02
           friction energy = 0.2347229E+02






 contact interface energy file, time= 0.4974847E+01
    #             slave       master       cycle=         24818    frictional

     10001   0.2203E+02   0.0000E+00                               0.2203E+02
         2   0.0000E+00   0.0000E+00                               0.0000E+00
     10013   0.6875E+00   0.0000E+00                               0.1516E+01

 summary   total slave side= 0.2271474E+02
           total mastr side= 0.0000000E+00
           total energy    = 0.2271474E+02
           friction energy = 0.2354650E+02






 contact interface energy file, time= 0.4979802E+01
    #             slave       master       cycle=         24843    frictional

     10001   0.2209E+02   0.0000E+00                               0.2210E+02
         2   0.0000E+00   0.0000E+00                               0.0000E+00
     10013   0.6903E+00   0.0000E+00                               0.1519E+01

 summary   total slave side= 0.2277633E+02
           total mastr side= 0.0000000E+00
           total energy    = 0.2277633E+02
           friction energy = 0.2361384E+02






 contact interface energy file, time= 0.4984974E+01
    #             slave       master       cycle=         24869    frictional

     10001   0.2214E+02   0.0000E+00                               0.2215E+02
         2   0.0000E+00   0.0000E+00                               0.0000E+00
     10013   0.6928E+00   0.0000E+00                               0.1521E+01

 summary   total slave side= 0.2283101E+02
           total mastr side= 0.0000000E+00
           total energy    = 0.2283101E+02
           friction energy = 0.2367500E+02






 contact interface energy file, time= 0.4989956E+01
    #             slave       master       cycle=         24894    frictional

     10001   0.2218E+02   0.0000E+00                               0.2220E+02
         2   0.0000E+00   0.0000E+00                               0.0000E+00
     10013   0.6948E+00   0.0000E+00                               0.1523E+01

 summary   total slave side= 0.2287370E+02
           total mastr side= 0.0000000E+00
           total energy    = 0.2287370E+02
           friction energy = 0.2372133E+02






 contact interface energy file, time= 0.4994936E+01
    #             slave       master       cycle=         24919    frictional

     10001   0.2221E+02   0.0000E+00                               0.2223E+02
         2   0.0000E+00   0.0000E+00                               0.0000E+00
     10013   0.6963E+00   0.0000E+00                               0.1524E+01

 summary   total slave side= 0.2290439E+02
           total mastr side= 0.0000000E+00
           total energy    = 0.2290439E+02
           friction energy = 0.2375583E+02






 contact interface energy file, time= 0.4999888E+01
    #             slave       master       cycle=         24944    frictional

     10001   0.2222E+02   0.0000E+00                               0.2225E+02
         2   0.0000E+00   0.0000E+00                               0.0000E+00
     10013   0.6972E+00   0.0000E+00                               0.1525E+01

 summary   total slave side= 0.2292167E+02
           total mastr side= 0.0000000E+00
           total energy    = 0.2292167E+02
           friction energy = 0.2377826E+02



