 Bolted Connection Type b                                                
                    ls-dyna smp d R13 R13.1.1_27_8731a0 date 07/28/2023

 constraint #      axial        shear         time  failure                                       length  rslt moment      torsion
          1  0.00000E+00  0.00000E+00  0.00000E+00  0.00+00    spotweld beam  ID    1000000  1.26000E+01  0.00000E+00  0.00000E+00

 constraint #      axial        shear         time  failure                                       length  rslt moment      torsion
          1  1.40343E-01  3.93039E-08  4.87301E-03  0.00+00    spotweld beam  ID    1000000  1.25999E+01  1.96262E-17  3.93459E-14

 constraint #      axial        shear         time  failure                                       length  rslt moment      torsion
          1  2.86787E-01  3.62112E-07  9.95789E-03  0.00+00    spotweld beam  ID    1000000  1.25992E+01  6.20634E-17  3.71353E-13

 constraint #      axial        shear         time  failure                                       length  rslt moment      torsion
          1  4.27130E-01  1.76132E-08  1.48309E-02  0.00+00    spotweld beam  ID    1000000  1.25980E+01  7.85046E-17  2.10662E-12

 constraint #      axial        shear         time  failure                                       length  rslt moment      torsion
          1  5.73574E-01  4.97582E-07  1.99158E-02  0.00+00    spotweld beam  ID    1000000  1.25958E+01  7.85046E-17  6.93286E-12

 constraint #      axial        shear         time  failure                                       length  rslt moment      torsion
          1  7.13917E-01  2.56617E-08  2.47888E-02  0.00+00    spotweld beam  ID    1000000  1.25922E+01  5.55112E-17  1.16229E-11

 constraint #      axial        shear         time  failure                                       length  rslt moment      torsion
          1  8.60362E-01  3.74608E-07  2.98737E-02  0.00+00    spotweld beam  ID    1000000  1.25866E+01  1.57009E-16  1.71036E-11

 constraint #      axial        shear         time  failure                                       length  rslt moment      torsion
          1  1.00681E+00  3.12286E-08  3.49586E-02  0.00+00    spotweld beam  ID    1000000  1.25790E+01  1.57009E-16  2.55367E-11

 constraint #      axial        shear         time  failure                                       length  rslt moment      torsion
          1  1.14715E+00  8.16033E-08  3.98316E-02  0.00+00    spotweld beam  ID    1000000  1.25692E+01  1.57009E-16  3.20846E-11

 constraint #      axial        shear         time  failure                                       length  rslt moment      torsion
          1  1.29359E+00  4.81699E-08  4.49164E-02  0.00+00    spotweld beam  ID    1000000  1.25560E+01  2.48253E-16  3.83797E-11

 constraint #      axial        shear         time  failure                                       length  rslt moment      torsion
          1  1.43394E+00  2.41358E-07  4.97895E-02  0.00+00    spotweld beam  ID    1000000  1.25405E+01  2.48253E-16  4.65328E-11

 constraint #      axial        shear         time  failure                                       length  rslt moment      torsion
          1  1.58038E+00  3.08247E-08  5.48743E-02  0.00+00    spotweld beam  ID    1000000  1.25206E+01  2.48253E-16  5.23261E-11

 constraint #      axial        shear         time  failure                                       length  rslt moment      torsion
          1  1.72683E+00  4.65985E-07  5.99592E-02  0.00+00    spotweld beam  ID    1000000  1.24967E+01  3.14018E-16  5.61926E-11

 constraint #      axial        shear         time  failure                                       length  rslt moment      torsion
          1  1.86717E+00  6.40298E-08  6.48322E-02  0.00+00    spotweld beam  ID    1000000  1.24697E+01  3.14018E-16  6.00211E-11

 constraint #      axial        shear         time  failure                                       length  rslt moment      torsion
          1  2.01361E+00  4.23182E-07  6.99171E-02  0.00+00    spotweld beam  ID    1000000  1.24370E+01  3.14018E-16  6.11631E-11

 constraint #      axial        shear         time  failure                                       length  rslt moment      torsion
          1  2.15396E+00  5.02689E-08  7.47901E-02  0.00+00    spotweld beam  ID    1000000  1.24006E+01  3.14018E-16  6.05952E-11

 constraint #      axial        shear         time  failure                                       length  rslt moment      torsion
          1  2.30040E+00  1.75564E-07  7.98750E-02  0.00+00    spotweld beam  ID    1000000  1.23574E+01  3.14018E-16  6.04299E-11

 constraint #      axial        shear         time  failure                                       length  rslt moment      torsion
          1  2.44684E+00  4.59693E-08  8.49599E-02  0.00+00    spotweld beam  ID    1000000  1.23085E+01  3.14018E-16  6.08214E-11

 constraint #      axial        shear         time  failure                                       length  rslt moment      torsion
          1  2.58719E+00  2.05159E-07  8.98329E-02  0.00+00    spotweld beam  ID    1000000  1.22555E+01  2.22045E-16  6.19341E-11

 constraint #      axial        shear         time  failure                                       length  rslt moment      torsion
          1  2.73363E+00  1.02213E-07  9.49178E-02  0.00+00    spotweld beam  ID    1000000  1.21939E+01  4.96507E-16  6.42018E-11

 constraint #      axial        shear         time  failure                                       length  rslt moment      torsion
          1  2.87397E+00  4.04648E-07  9.97908E-02  0.00+00    spotweld beam  ID    1000000  1.21285E+01  2.22045E-16  6.90010E-11

 constraint #      axial        shear         time  failure                                       length  rslt moment      torsion
          1  3.02042E+00  7.15809E-08  1.04876E-01  0.00+00    spotweld beam  ID    1000000  1.20529E+01  2.22045E-16  7.46305E-11

 constraint #      axial        shear         time  failure                                       length  rslt moment      torsion
          1  3.16686E+00  4.32607E-07  1.09961E-01  0.00+00    spotweld beam  ID    1000000  1.19697E+01  4.96507E-16  7.97497E-11

 constraint #      axial        shear         time  failure                                       length  rslt moment      torsion
          1  3.30721E+00  7.32189E-08  1.14834E-01  0.00+00    spotweld beam  ID    1000000  1.18824E+01  4.44089E-16  8.75813E-11

 constraint #      axial        shear         time  failure                                       length  rslt moment      torsion
          1  3.45365E+00  2.04233E-07  1.19918E-01  0.00+00    spotweld beam  ID    1000000  1.17831E+01  6.28037E-16  9.51908E-11

 constraint #      axial        shear         time  failure                                       length  rslt moment      torsion
          1  3.59399E+00  1.16170E-07  1.24791E-01  0.00+00    spotweld beam  ID    1000000  1.16796E+01  6.28037E-16  1.00804E-10

 constraint #      axial        shear         time  failure                                       length  rslt moment      torsion
          1  3.74044E+00  8.70795E-08  1.29876E-01  0.00+00    spotweld beam  ID    1000000  1.15628E+01  6.28037E-16  1.08737E-10

 constraint #      axial        shear         time  failure                                       length  rslt moment      torsion
          1  3.88688E+00  7.72317E-08  1.34961E-01  0.00+00    spotweld beam  ID    1000000  1.14365E+01  6.28037E-16  1.14399E-10

 constraint #      axial        shear         time  failure                                       length  rslt moment      torsion
          1  4.02723E+00  3.80017E-07  1.39834E-01  0.00+00    spotweld beam  ID    1000000  1.13060E+01  4.44089E-16  1.16435E-10

 constraint #      axial        shear         time  failure                                       length  rslt moment      torsion
          1  4.17367E+00  1.01730E-07  1.44919E-01  0.00+00    spotweld beam  ID    1000000  1.11599E+01  6.28037E-16  1.18892E-10

 constraint #      axial        shear         time  failure                                       length  rslt moment      torsion
          1  4.31401E+00  4.51259E-07  1.49792E-01  0.00+00    spotweld beam  ID    1000000  1.10101E+01  6.28037E-16  1.19244E-10

 constraint #      axial        shear         time  failure                                       length  rslt moment      torsion
          1  4.46046E+00  6.26176E-08  1.54877E-01  0.00+00    spotweld beam  ID    1000000  1.08428E+01  6.28037E-16  1.17802E-10

 constraint #      axial        shear         time  failure                                       length  rslt moment      torsion
          1  4.60690E+00  3.34849E-07  1.59962E-01  0.00+00    spotweld beam  ID    1000000  1.06642E+01  6.28037E-16  1.18018E-10

 constraint #      axial        shear         time  failure                                       length  rslt moment      torsion
          1  4.74721E+00  1.01840E-06  1.64834E-01  0.00+00    spotweld beam  ID    1000000  1.04824E+01  6.28037E-16 -2.26885E-09

 constraint #      axial        shear         time  failure                                       length  rslt moment      torsion
          1  4.89353E+00  2.07108E-03  1.69914E-01  0.00+00    spotweld beam  ID    1000000  1.02926E+01  6.28037E-16 -2.40906E-07

 constraint #      axial        shear         time  failure                                       length  rslt moment      torsion
          1  5.03929E+00  7.73525E-03  1.74975E-01  0.00+00    spotweld beam  ID    1000000  1.01311E+01  4.44089E-16 -1.21849E-06

 constraint #      axial        shear         time  failure                                       length  rslt moment      torsion
          1  5.18218E+00  1.77133E-02  1.79937E-01  0.00+00    spotweld beam  ID    1000000  1.00085E+01  4.44089E-16 -1.94030E-06

 constraint #      axial        shear         time  failure                                       length  rslt moment      torsion
          1  5.32791E+00  9.68687E-02  1.84997E-01  0.00+00    spotweld beam  ID    1000000  9.91172E+00  4.44089E-16 -5.65320E-06

 constraint #      axial        shear         time  failure                                       length  rslt moment      torsion
          1  5.46678E+00  1.26050E-01  1.89819E-01  0.00+00    spotweld beam  ID    1000000  9.87333E+00  9.93014E-16 -2.33516E-05

 constraint #      axial        shear         time  failure                                       length  rslt moment      torsion
          1  5.61156E+00  8.78048E-02  1.94846E-01  0.00+00    spotweld beam  ID    1000000  9.90715E+00  6.28037E-16 -6.23269E-05

 constraint #      axial        shear         time  failure                                       length  rslt moment      torsion
          1  5.75622E+00  1.78994E-01  1.99869E-01  0.00+00    spotweld beam  ID    1000000  9.99154E+00  9.93014E-16 -1.60970E-04

 constraint #      axial        shear         time  failure                                       length  rslt moment      torsion
          1  5.90102E+00  2.18576E-01  2.04896E-01  0.00+00    spotweld beam  ID    1000000  1.00526E+01  9.93014E-16 -3.04851E-04

 constraint #      axial        shear         time  failure                                       length  rslt moment      torsion
          1  6.04578E+00  7.54242E-02  2.09923E-01  0.00+00    spotweld beam  ID    1000000  1.00900E+01  9.93014E-16 -4.10728E-04

 constraint #      axial        shear         time  failure                                       length  rslt moment      torsion
          1  6.19047E+00  4.44223E-01  2.14947E-01  0.00+00    spotweld beam  ID    1000000  1.01387E+01  9.93014E-16 -3.81704E-04

 constraint #      axial        shear         time  failure                                       length  rslt moment      torsion
          1  6.33517E+00  3.06481E-01  2.19971E-01  0.00+00    spotweld beam  ID    1000000  1.01626E+01  9.93014E-16 -1.87283E-04

 constraint #      axial        shear         time  failure                                       length  rslt moment      torsion
          1  6.47422E+00  1.81781E-02  2.24799E-01  0.00+00    spotweld beam  ID    1000000  1.01521E+01  8.88178E-16  1.00815E-04

 constraint #      axial        shear         time  failure                                       length  rslt moment      torsion
          1  6.61903E+00  5.15090E-01  2.29827E-01  0.00+00    spotweld beam  ID    1000000  1.01480E+01  1.25607E-15  4.57978E-04

 constraint #      axial        shear         time  failure                                       length  rslt moment      torsion
          1  6.76378E+00  2.98197E-01  2.34854E-01  0.00+00    spotweld beam  ID    1000000  1.01317E+01  1.25607E-15  8.11915E-04

 constraint #      axial        shear         time  failure                                       length  rslt moment      torsion
          1  6.90853E+00  5.67367E-02  2.39879E-01  0.00+00    spotweld beam  ID    1000000  1.00787E+01  1.25607E-15  1.06178E-03

 constraint #      axial        shear         time  failure                                       length  rslt moment      torsion
          1  7.05326E+00  5.15923E-01  2.44905E-01  0.00+00    spotweld beam  ID    1000000  1.00313E+01  1.25607E-15  1.20378E-03

 constraint #      axial        shear         time  failure                                       length  rslt moment      torsion
          1  7.19800E+00  1.84579E-01  2.49931E-01  0.00+00    spotweld beam  ID    1000000  9.98942E+00  1.25607E-15  1.26368E-03

 constraint #      axial        shear         time  failure                                       length  rslt moment      torsion
          1  7.34264E+00  6.22866E-02  2.54953E-01  0.00+00    spotweld beam  ID    1000000  9.92424E+00  8.88178E-16  1.20972E-03

 constraint #      axial        shear         time  failure                                       length  rslt moment      torsion
          1  7.48726E+00  1.01756E-01  2.59974E-01  0.00+00    spotweld beam  ID    1000000  9.87847E+00  1.25607E-15  1.03240E-03

 constraint #      axial        shear         time  failure                                       length  rslt moment      torsion
          1  7.63193E+00  4.70789E-01  2.64998E-01  0.00+00    spotweld beam  ID    1000000  9.88259E+00  1.25607E-15  7.78323E-04

 constraint #      axial        shear         time  failure                                       length  rslt moment      torsion
          1  7.77078E+00  2.23841E-01  2.69819E-01  0.00+00    spotweld beam  ID    1000000  9.91352E+00  1.25607E-15  5.49096E-04

 constraint #      axial        shear         time  failure                                       length  rslt moment      torsion
          1  7.91542E+00  8.90167E-01  2.74841E-01  0.00+00    spotweld beam  ID    1000000  9.95856E+00  1.25607E-15  3.69997E-04

 constraint #      axial        shear         time  failure                                       length  rslt moment      torsion
          1  8.06002E+00  3.61335E-01  2.79862E-01  0.00+00    spotweld beam  ID    1000000  9.99913E+00  1.25607E-15  2.82251E-04

 constraint #      axial        shear         time  failure                                       length  rslt moment      torsion
          1  8.20489E+00  9.38802E-01  2.84892E-01  0.00+00    spotweld beam  ID    1000000  1.00172E+01  1.25607E-15  2.46972E-04

 constraint #      axial        shear         time  failure                                       length  rslt moment      torsion
          1  8.34976E+00  1.09109E+00  2.89922E-01  0.00+00    spotweld beam  ID    1000000  1.00213E+01  1.25607E-15  2.02817E-04

 constraint #      axial        shear         time  failure                                       length  rslt moment      torsion
          1  8.49447E+00  1.40571E-01  2.94947E-01  0.00+00    spotweld beam  ID    1000000  1.00150E+01  1.25607E-15  1.59820E-04

 constraint #      axial        shear         time  failure                                       length  rslt moment      torsion
          1  8.63916E+00  1.49374E+00  2.99971E-01  0.00+00    spotweld beam  ID    1000000  9.98716E+00  1.25607E-15  2.40138E-04

 constraint #      axial        shear         time  failure                                       length  rslt moment      torsion
          1  8.78389E+00  1.04547E+00  3.04996E-01  0.00+00    spotweld beam  ID    1000000  9.95081E+00  1.25607E-15  5.76814E-04

 constraint #      axial        shear         time  failure                                       length  rslt moment      torsion
          1  8.92279E+00  4.83686E-01  3.09819E-01  0.00+00    spotweld beam  ID    1000000  9.92152E+00  8.88178E-16  1.04758E-03

 constraint #      axial        shear         time  failure                                       length  rslt moment      torsion
          1  9.06741E+00  6.49645E-01  3.14840E-01  0.00+00    spotweld beam  ID    1000000  9.89534E+00  8.88178E-16  1.36189E-03

 constraint #      axial        shear         time  failure                                       length  rslt moment      torsion
          1  9.21206E+00  6.91421E-01  3.19863E-01  0.00+00    spotweld beam  ID    1000000  9.89214E+00  1.25607E-15  1.28124E-03

 constraint #      axial        shear         time  failure                                       length  rslt moment      torsion
          1  9.35668E+00  8.78220E-01  3.24885E-01  0.00+00    spotweld beam  ID    1000000  9.91722E+00  1.25607E-15  8.42597E-04

 constraint #      axial        shear         time  failure                                       length  rslt moment      torsion
          1  9.50156E+00  4.54949E-01  3.29915E-01  0.00+00    spotweld beam  ID    1000000  9.94391E+00  1.25607E-15  2.47605E-04

 constraint #      axial        shear         time  failure                                       length  rslt moment      torsion
          1  9.64636E+00  7.82751E-01  3.34943E-01  0.00+00    spotweld beam  ID    1000000  9.96540E+00  1.25607E-15 -2.53578E-04

 constraint #      axial        shear         time  failure                                       length  rslt moment      torsion
          1  9.79103E+00  1.47287E-01  3.39966E-01  0.00+00    spotweld beam  ID    1000000  9.98025E+00  1.25607E-15 -4.94794E-04

 constraint #      axial        shear         time  failure                                       length  rslt moment      torsion
          1  9.93582E+00  9.93273E-01  3.44994E-01  0.00+00    spotweld beam  ID    1000000  9.97668E+00  1.25607E-15 -4.94471E-04

 constraint #      axial        shear         time  failure                                       length  rslt moment      torsion
          1  1.00746E+01  5.80733E-01  3.49814E-01  0.00+00    spotweld beam  ID    1000000  9.96083E+00  8.88178E-16 -3.18510E-04

 constraint #      axial        shear         time  failure                                       length  rslt moment      torsion
          1  1.02193E+01  7.71195E-01  3.54837E-01  0.00+00    spotweld beam  ID    1000000  9.93948E+00  8.88178E-16 -1.53940E-07

 constraint #      axial        shear         time  failure                                       length  rslt moment      torsion
          1  1.03641E+01  1.14398E+00  3.59864E-01  0.00+00    spotweld beam  ID    1000000  9.91397E+00  1.98603E-15  4.58328E-04

 constraint #      axial        shear         time  failure                                       length  rslt moment      torsion
          1  1.05087E+01  2.54657E-01  3.64885E-01  0.00+00    spotweld beam  ID    1000000  9.89791E+00  1.25607E-15  1.00940E-03

 constraint #      axial        shear         time  failure                                       length  rslt moment      torsion
          1  1.06533E+01  1.88994E-01  3.69907E-01  0.00+00    spotweld beam  ID    1000000  9.90123E+00  8.88178E-16  1.40338E-03

 constraint #      axial        shear         time  failure                                       length  rslt moment      torsion
          1  1.07986E+01  6.64973E-01  3.74951E-01  0.00+00    spotweld beam  ID    1000000  9.91643E+00  1.98603E-15  1.34992E-03

 constraint #      axial        shear         time  failure                                       length  rslt moment      torsion
          1  1.09432E+01  4.40734E-01  3.79971E-01  0.00+00    spotweld beam  ID    1000000  9.93676E+00  8.88178E-16  8.15040E-04

 constraint #      axial        shear         time  failure                                       length  rslt moment      torsion
          1  1.10880E+01  3.70347E-01  3.84998E-01  0.00+00    spotweld beam  ID    1000000  9.95349E+00  1.25607E-15  3.44225E-05

 constraint #      axial        shear         time  failure                                       length  rslt moment      torsion
          1  1.12268E+01  1.00771E+00  3.89818E-01  0.00+00    spotweld beam  ID    1000000  9.95609E+00  8.88178E-16 -6.15266E-04

 constraint #      axial        shear         time  failure                                       length  rslt moment      torsion
          1  1.13714E+01  1.38768E-01  3.94841E-01  0.00+00    spotweld beam  ID    1000000  9.94738E+00  8.88178E-16 -9.20739E-04

 constraint #      axial        shear         time  failure                                       length  rslt moment      torsion
          1  1.15164E+01  2.48439E-01  3.99874E-01  0.00+00    spotweld beam  ID    1000000  9.93299E+00  8.88178E-16 -7.97353E-04

 constraint #      axial        shear         time  failure                                       length  rslt moment      torsion
          1  1.16609E+01  2.33897E-02  4.04894E-01  0.00+00    spotweld beam  ID    1000000  9.91331E+00  8.88178E-16 -3.56259E-04

 constraint #      axial        shear         time  failure                                       length  rslt moment      torsion
          1  1.18055E+01  3.69798E-01  4.09913E-01  0.00+00    spotweld beam  ID    1000000  9.89819E+00  1.98603E-15  2.61192E-04

 constraint #      axial        shear         time  failure                                       length  rslt moment      torsion
          1  1.19502E+01  2.79356E-02  4.14938E-01  0.00+00    spotweld beam  ID    1000000  9.89821E+00  1.98603E-15  9.38775E-04

 constraint #      axial        shear         time  failure                                       length  rslt moment      torsion
          1  1.20954E+01  5.65941E-01  4.19981E-01  0.00+00    spotweld beam  ID    1000000  9.90814E+00  8.88178E-16  1.54352E-03

 constraint #      axial        shear         time  failure                                       length  rslt moment      torsion
          1  1.22344E+01  7.00848E-01  4.24804E-01  0.00+00    spotweld beam  ID    1000000  9.92137E+00  8.88178E-16  1.95420E-03

 constraint #      axial        shear         time  failure                                       length  rslt moment      torsion
          1  1.23789E+01  2.60789E-01  4.29824E-01  0.00+00    spotweld beam  ID    1000000  9.93417E+00  8.88178E-16  2.15830E-03

 constraint #      axial        shear         time  failure                                       length  rslt moment      torsion
          1  1.25236E+01  1.87193E-01  4.34846E-01  0.00+00    spotweld beam  ID    1000000  9.93729E+00  1.77636E-15  2.16298E-03

 constraint #      axial        shear         time  failure                                       length  rslt moment      torsion
          1  1.26683E+01  7.14910E-02  4.39873E-01  0.00+00    spotweld beam  ID    1000000  9.93038E+00  1.98603E-15  2.03155E-03

 constraint #      axial        shear         time  failure                                       length  rslt moment      torsion
          1  1.28130E+01  3.38874E-01  4.44897E-01  0.00+00    spotweld beam  ID    1000000  9.91821E+00  1.77636E-15  1.78423E-03

 constraint #      axial        shear         time  failure                                       length  rslt moment      torsion
          1  1.29577E+01  9.57962E-02  4.49919E-01  0.00+00    spotweld beam  ID    1000000  9.90346E+00  1.77636E-15  1.39323E-03

 constraint #      axial        shear         time  failure                                       length  rslt moment      torsion
          1  1.31026E+01  8.17261E-01  4.54950E-01  0.00+00    spotweld beam  ID    1000000  9.89438E+00  2.51215E-15  8.66729E-04

 constraint #      axial        shear         time  failure                                       length  rslt moment      torsion
          1  1.32474E+01  1.07782E+00  4.59978E-01  0.00+00    spotweld beam  ID    1000000  9.89633E+00  2.51215E-15  2.78863E-04

 constraint #      axial        shear         time  failure                                       length  rslt moment      torsion
          1  1.33865E+01  8.55846E-02  4.64810E-01  0.00+00    spotweld beam  ID    1000000  9.90424E+00  1.77636E-15 -2.87244E-04

 constraint #      axial        shear         time  failure                                       length  rslt moment      torsion
          1  1.35312E+01  6.81389E-01  4.69835E-01  0.00+00    spotweld beam  ID    1000000  9.91442E+00  2.51215E-15 -7.93534E-04

 constraint #      axial        shear         time  failure                                       length  rslt moment      torsion
          1  1.36759E+01  4.91180E-02  4.74858E-01  0.00+00    spotweld beam  ID    1000000  9.92205E+00  2.51215E-15 -1.06444E-03

 constraint #      axial        shear         time  failure                                       length  rslt moment      torsion
          1  1.38204E+01  8.65561E-01  4.79874E-01  0.00+00    spotweld beam  ID    1000000  9.92139E+00  2.51215E-15 -1.01793E-03

 constraint #      axial        shear         time  failure                                       length  rslt moment      torsion
          1  1.39651E+01  2.16604E-01  4.84899E-01  0.00+00    spotweld beam  ID    1000000  9.91381E+00  1.77636E-15 -7.10558E-04

 constraint #      axial        shear         time  failure                                       length  rslt moment      torsion
          1  1.41097E+01  5.88775E-01  4.89922E-01  0.00+00    spotweld beam  ID    1000000  9.90382E+00  2.51215E-15 -2.25453E-04

 constraint #      axial        shear         time  failure                                       length  rslt moment      torsion
          1  1.42543E+01  1.49322E-01  4.94942E-01  0.00+00    spotweld beam  ID    1000000  9.89424E+00  2.51215E-15  3.64455E-04

 constraint #      axial        shear         time  failure                                       length  rslt moment      torsion
          1  1.43988E+01  1.32283E-01  4.99960E-01  0.00+00    spotweld beam  ID    1000000  9.89040E+00  2.51215E-15  9.32681E-04

 constraint #      axial        shear         time  failure                                       length  rslt moment      torsion
          1  1.45435E+01  4.63339E-01  5.04983E-01  0.00+00    spotweld beam  ID    1000000  9.89435E+00  2.51215E-15  1.30889E-03

 constraint #      axial        shear         time  failure                                       length  rslt moment      torsion
          1  1.46827E+01  9.92897E-01  5.09815E-01  0.00+00    spotweld beam  ID    1000000  9.90159E+00  2.51215E-15  1.36353E-03

 constraint #      axial        shear         time  failure                                       length  rslt moment      torsion
          1  1.48277E+01  1.23550E-01  5.14851E-01  0.00+00    spotweld beam  ID    1000000  9.90872E+00  2.51215E-15  1.07115E-03

 constraint #      axial        shear         time  failure                                       length  rslt moment      torsion
          1  1.49722E+01  1.27279E+00  5.19868E-01  0.00+00    spotweld beam  ID    1000000  9.91149E+00  2.51215E-15  5.38390E-04

 constraint #      axial        shear         time  failure                                       length  rslt moment      torsion
          1  1.51168E+01  1.50461E+00  5.24888E-01  0.00+00    spotweld beam  ID    1000000  9.90744E+00  1.77636E-15  3.19847E-05

 constraint #      axial        shear         time  failure                                       length  rslt moment      torsion
          1  1.52617E+01  2.90491E-01  5.29920E-01  0.00+00    spotweld beam  ID    1000000  9.89937E+00  1.77636E-15 -2.65371E-04

 constraint #      axial        shear         time  failure                                       length  rslt moment      torsion
          1  1.54063E+01  2.46713E-01  5.34943E-01  0.00+00    spotweld beam  ID    1000000  9.89125E+00  1.77636E-15 -3.67823E-04

 constraint #      axial        shear         time  failure                                       length  rslt moment      torsion
          1  1.55509E+01  1.47783E-01  5.39962E-01  0.00+00    spotweld beam  ID    1000000  9.88597E+00  2.51215E-15 -3.93067E-04

 constraint #      axial        shear         time  failure                                       length  rslt moment      torsion
          1  1.56956E+01  1.09005E-01  5.44987E-01  0.00+00    spotweld beam  ID    1000000  9.88630E+00  2.51215E-15 -2.72055E-04

 constraint #      axial        shear         time  failure                                       length  rslt moment      torsion
          1  1.58348E+01  9.97174E-01  5.49821E-01  0.00+00    spotweld beam  ID    1000000  9.89092E+00  2.51215E-15  9.38907E-05

 constraint #      axial        shear         time  failure                                       length  rslt moment      torsion
          1  1.59795E+01  1.16768E+00  5.54842E-01  0.00+00    spotweld beam  ID    1000000  9.89652E+00  2.51215E-15  7.09430E-04

 constraint #      axial        shear         time  failure                                       length  rslt moment      torsion
          1  1.61240E+01  2.74745E-01  5.59861E-01  0.00+00    spotweld beam  ID    1000000  9.89998E+00  2.51215E-15  1.37256E-03

 constraint #      axial        shear         time  failure                                       length  rslt moment      torsion
          1  1.62687E+01  7.12654E-01  5.64886E-01  0.00+00    spotweld beam  ID    1000000  9.89887E+00  2.51215E-15  1.91629E-03

 constraint #      axial        shear         time  failure                                       length  rslt moment      torsion
          1  1.64136E+01  1.65917E-01  5.69917E-01  0.00+00    spotweld beam  ID    1000000  9.89344E+00  2.51215E-15  2.23726E-03

 constraint #      axial        shear         time  failure                                       length  rslt moment      torsion
          1  1.65586E+01  6.67748E-01  5.74951E-01  0.00+00    spotweld beam  ID    1000000  9.88690E+00  2.51215E-15  2.27324E-03

 constraint #      axial        shear         time  failure                                       length  rslt moment      torsion
          1  1.67033E+01  4.78198E-01  5.79975E-01  0.00+00    spotweld beam  ID    1000000  9.88188E+00  2.51215E-15  2.04240E-03

 constraint #      axial        shear         time  failure                                       length  rslt moment      torsion
          1  1.68480E+01  3.74194E-01  5.85000E-01  0.00+00    spotweld beam  ID    1000000  9.88025E+00  2.51215E-15  1.62369E-03

 constraint #      axial        shear         time  failure                                       length  rslt moment      torsion
          1  1.69870E+01  2.11405E-01  5.89828E-01  0.00+00    spotweld beam  ID    1000000  9.88212E+00  3.97205E-15  1.08554E-03

 constraint #      axial        shear         time  failure                                       length  rslt moment      torsion
          1  1.71316E+01  1.73656E-01  5.94849E-01  0.00+00    spotweld beam  ID    1000000  9.88585E+00  1.77636E-15  4.45139E-04

 constraint #      axial        shear         time  failure                                       length  rslt moment      torsion
          1  1.72761E+01  3.79685E-01  5.99866E-01  0.00+00    spotweld beam  ID    1000000  9.88893E+00  3.97205E-15 -1.39112E-04

 constraint #      axial        shear         time  failure                                       length  rslt moment      torsion
          1  1.74208E+01  2.26642E-02  6.04889E-01  0.00+00    spotweld beam  ID    1000000  9.88941E+00  2.51215E-15 -5.26318E-04

 constraint #      axial        shear         time  failure                                       length  rslt moment      torsion
          1  1.75654E+01  4.60016E-01  6.09910E-01  0.00+00    spotweld beam  ID    1000000  9.88674E+00  2.51215E-15 -7.07740E-04

 constraint #      axial        shear         time  failure                                       length  rslt moment      torsion
          1  1.77100E+01  9.75287E-01  6.14932E-01  0.00+00    spotweld beam  ID    1000000  9.88158E+00  1.77636E-15 -7.48989E-04

 constraint #      axial        shear         time  failure                                       length  rslt moment      torsion
          1  1.78547E+01  5.52593E-01  6.19954E-01  0.00+00    spotweld beam  ID    1000000  9.87652E+00  2.51215E-15 -6.74199E-04

 constraint #      axial        shear         time  failure                                       length  rslt moment      torsion
          1  1.79994E+01  6.22158E-01  6.24980E-01  0.00+00    spotweld beam  ID    1000000  9.87370E+00  2.51215E-15 -4.40449E-04

 constraint #      axial        shear         time  failure                                       length  rslt moment      torsion
          1  1.81385E+01  9.82842E-01  6.29811E-01  0.00+00    spotweld beam  ID    1000000  9.87341E+00  2.51215E-15 -6.48441E-05

 constraint #      axial        shear         time  failure                                       length  rslt moment      torsion
          1  1.82832E+01  4.03974E-01  6.34835E-01  0.00+00    spotweld beam  ID    1000000  9.87354E+00  2.51215E-15  4.46685E-04

 constraint #      axial        shear         time  failure                                       length  rslt moment      torsion
          1  1.84279E+01  3.57144E-02  6.39858E-01  0.00+00    spotweld beam  ID    1000000  9.87268E+00  1.77636E-15  9.93651E-04

 constraint #      axial        shear         time  failure                                       length  rslt moment      torsion
          1  1.85730E+01  3.14537E-01  6.44896E-01  0.00+00    spotweld beam  ID    1000000  9.87076E+00  1.77636E-15  1.42612E-03

 constraint #      axial        shear         time  failure                                       length  rslt moment      torsion
          1  1.87175E+01  4.95470E-01  6.49912E-01  0.00+00    spotweld beam  ID    1000000  9.86796E+00  2.51215E-15  1.62652E-03

 constraint #      axial        shear         time  failure                                       length  rslt moment      torsion
          1  1.88620E+01  3.90439E-02  6.54930E-01  0.00+00    spotweld beam  ID    1000000  9.86382E+00  2.51215E-15  1.55842E-03

 constraint #      axial        shear         time  failure                                       length  rslt moment      torsion
          1  1.90065E+01  6.31017E-01  6.59947E-01  0.00+00    spotweld beam  ID    1000000  9.85926E+00  2.51215E-15  1.23785E-03

 constraint #      axial        shear         time  failure                                       length  rslt moment      torsion
          1  1.91511E+01  6.55103E-01  6.64969E-01  0.00+00    spotweld beam  ID    1000000  9.85499E+00  2.51215E-15  6.54801E-04

 constraint #      axial        shear         time  failure                                       length  rslt moment      torsion
          1  1.92957E+01  3.49001E-01  6.69991E-01  0.00+00    spotweld beam  ID    1000000  9.85102E+00  2.51215E-15 -7.34115E-05

 constraint #      axial        shear         time  failure                                       length  rslt moment      torsion
          1  1.94346E+01  6.54735E-01  6.74813E-01  0.00+00    spotweld beam  ID    1000000  9.84710E+00  3.97205E-15 -7.19164E-04

 constraint #      axial        shear         time  failure                                       length  rslt moment      torsion
          1  1.95793E+01  8.23520E-01  6.79838E-01  0.00+00    spotweld beam  ID    1000000  9.84232E+00  2.51215E-15 -1.15865E-03

 constraint #      axial        shear         time  failure                                       length  rslt moment      torsion
          1  1.97239E+01  3.31852E-01  6.84857E-01  0.00+00    spotweld beam  ID    1000000  9.83668E+00  3.97205E-15 -1.28483E-03

 constraint #      axial        shear         time  failure                                       length  rslt moment      torsion
          1  1.98685E+01  5.98506E-01  6.89879E-01  0.00+00    spotweld beam  ID    1000000  9.83041E+00  2.51215E-15 -1.08870E-03

 constraint #      axial        shear         time  failure                                       length  rslt moment      torsion
          1  2.00135E+01  9.05030E-01  6.94913E-01  0.00+00    spotweld beam  ID    1000000  9.82338E+00  1.77636E-15 -5.79180E-04

 constraint #      axial        shear         time  failure                                       length  rslt moment      torsion
          1  2.01585E+01  4.80850E-01  6.99950E-01  0.00+00    spotweld beam  ID    1000000  9.81559E+00  2.51215E-15  1.55768E-04

 constraint #      axial        shear         time  failure                                       length  rslt moment      torsion
          1  2.03033E+01  1.59014E-01  7.04974E-01  0.00+00    spotweld beam  ID    1000000  9.80740E+00  3.97205E-15  9.35678E-04

 constraint #      axial        shear         time  failure                                       length  rslt moment      torsion
          1  2.04477E+01  3.24364E-01  7.09990E-01  0.00+00    spotweld beam  ID    1000000  9.79754E+00  1.77636E-15  1.55655E-03

 constraint #      axial        shear         time  failure                                       length  rslt moment      torsion
          1  2.05864E+01  3.95139E-01  7.14805E-01  0.00+00    spotweld beam  ID    1000000  9.78644E+00  2.51215E-15  1.88275E-03

 constraint #      axial        shear         time  failure                                       length  rslt moment      torsion
          1  2.07309E+01  1.87066E-01  7.19823E-01  0.00+00    spotweld beam  ID    1000000  9.77600E+00  3.97205E-15  1.92307E-03

 constraint #      axial        shear         time  failure                                       length  rslt moment      torsion
          1  2.08754E+01  5.22106E-01  7.24840E-01  0.00+00    spotweld beam  ID    1000000  9.76766E+00  3.97205E-15  1.70782E-03

 constraint #      axial        shear         time  failure                                       length  rslt moment      torsion
          1  2.10199E+01  1.45966E-01  7.29859E-01  0.00+00    spotweld beam  ID    1000000  9.76136E+00  3.97205E-15  1.30678E-03

 constraint #      axial        shear         time  failure                                       length  rslt moment      torsion
          1  2.11648E+01  2.75759E-01  7.34889E-01  0.00+00    spotweld beam  ID    1000000  9.75583E+00  1.77636E-15  7.41445E-04

 constraint #      axial        shear         time  failure                                       length  rslt moment      torsion
          1  2.13095E+01  3.42462E-01  7.39913E-01  0.00+00    spotweld beam  ID    1000000  9.75036E+00  1.77636E-15  1.72620E-06

 constraint #      axial        shear         time  failure                                       length  rslt moment      torsion
          1  2.14541E+01  8.52760E-01  7.44935E-01  0.00+00    spotweld beam  ID    1000000  9.74575E+00  3.97205E-15 -8.23690E-04

 constraint #      axial        shear         time  failure                                       length  rslt moment      torsion
          1  2.15990E+01  3.15742E-01  7.49966E-01  0.00+00    spotweld beam  ID    1000000  9.74128E+00  3.97205E-15 -1.53221E-03

 constraint #      axial        shear         time  failure                                       length  rslt moment      torsion
          1  2.17439E+01  7.24951E-01  7.54998E-01  0.00+00    spotweld beam  ID    1000000  9.73672E+00  3.97205E-15 -1.90250E-03

 constraint #      axial        shear         time  failure                                       length  rslt moment      torsion
          1  2.18829E+01  7.89992E-01  7.59823E-01  0.00+00    spotweld beam  ID    1000000  9.73317E+00  1.77636E-15 -1.88859E-03

 constraint #      axial        shear         time  failure                                       length  rslt moment      torsion
          1  2.20275E+01  3.42497E-01  7.64842E-01  0.00+00    spotweld beam  ID    1000000  9.72886E+00  2.51215E-15 -1.57868E-03

 constraint #      axial        shear         time  failure                                       length  rslt moment      torsion
          1  2.21721E+01  4.68318E-01  7.69863E-01  0.00+00    spotweld beam  ID    1000000  9.72325E+00  3.97205E-15 -1.05711E-03

 constraint #      axial        shear         time  failure                                       length  rslt moment      torsion
          1  2.23167E+01  8.96983E-01  7.74884E-01  0.00+00    spotweld beam  ID    1000000  9.71714E+00  2.51215E-15 -3.92767E-04

 constraint #      axial        shear         time  failure                                       length  rslt moment      torsion
          1  2.24612E+01  5.31776E-01  7.79904E-01  0.00+00    spotweld beam  ID    1000000  9.71110E+00  3.97205E-15  3.33169E-04

 constraint #      axial        shear         time  failure                                       length  rslt moment      torsion
          1  2.26058E+01  5.68337E-01  7.84922E-01  0.00+00    spotweld beam  ID    1000000  9.70539E+00  2.51215E-15  1.04387E-03

 constraint #      axial        shear         time  failure                                       length  rslt moment      torsion
          1  2.27505E+01  9.27708E-01  7.89947E-01  0.00+00    spotweld beam  ID    1000000  9.69970E+00  1.77636E-15  1.62865E-03

 constraint #      axial        shear         time  failure                                       length  rslt moment      torsion
          1  2.28903E+01  6.61873E-02  7.94801E-01  0.00+00    spotweld beam  ID    1000000  9.69407E+00  3.97205E-15  1.93201E-03

 constraint #      axial        shear         time  failure                                       length  rslt moment      torsion
          1  2.30348E+01  6.42009E-01  7.99820E-01  0.00+00    spotweld beam  ID    1000000  9.68798E+00  1.77636E-15  1.88004E-03

 constraint #      axial        shear         time  failure                                       length  rslt moment      torsion
          1  2.31793E+01  1.55432E-01  8.04838E-01  0.00+00    spotweld beam  ID    1000000  9.68169E+00  3.97205E-15  1.48140E-03

 constraint #      axial        shear         time  failure                                       length  rslt moment      torsion
          1  2.33241E+01  3.33028E-01  8.09866E-01  0.00+00    spotweld beam  ID    1000000  9.67547E+00  2.51215E-15  8.87110E-04

 constraint #      axial        shear         time  failure                                       length  rslt moment      torsion
          1  2.34687E+01  2.62170E-01  8.14884E-01  0.00+00    spotweld beam  ID    1000000  9.66934E+00  2.51215E-15  2.83435E-04

 constraint #      axial        shear         time  failure                                       length  rslt moment      torsion
          1  2.36133E+01  8.54724E-01  8.19908E-01  0.00+00    spotweld beam  ID    1000000  9.66314E+00  1.77636E-15 -2.46107E-04

 constraint #      axial        shear         time  failure                                       length  rslt moment      torsion
          1  2.37579E+01  3.94587E-01  8.24926E-01  0.00+00    spotweld beam  ID    1000000  9.65692E+00  3.97205E-15 -6.98478E-04

 constraint #      axial        shear         time  failure                                       length  rslt moment      torsion
          1  2.39024E+01  4.93560E-01  8.29945E-01  0.00+00    spotweld beam  ID    1000000  9.65082E+00  3.97205E-15 -1.04096E-03

 constraint #      axial        shear         time  failure                                       length  rslt moment      torsion
          1  2.40474E+01  1.94081E-01  8.34980E-01  0.00+00    spotweld beam  ID    1000000  9.64469E+00  3.97205E-15 -1.16269E-03

 constraint #      axial        shear         time  failure                                       length  rslt moment      torsion
          1  2.41919E+01  3.66414E-01  8.39998E-01  0.00+00    spotweld beam  ID    1000000  9.63857E+00  3.55271E-15 -9.77308E-04

 constraint #      axial        shear         time  failure                                       length  rslt moment      torsion
          1  2.43307E+01  1.28453E-01  8.44817E-01  0.00+00    spotweld beam  ID    1000000  9.63259E+00  1.77636E-15 -5.81460E-04

 constraint #      axial        shear         time  failure                                       length  rslt moment      torsion
          1  2.44755E+01  6.36402E-01  8.49843E-01  0.00+00    spotweld beam  ID    1000000  9.62622E+00  1.77636E-15 -1.69193E-04

 constraint #      axial        shear         time  failure                                       length  rslt moment      torsion
          1  2.46202E+01  3.54537E-01  8.54867E-01  0.00+00    spotweld beam  ID    1000000  9.61979E+00  3.55271E-15  9.96729E-05

 constraint #      axial        shear         time  failure                                       length  rslt moment      torsion
          1  2.47647E+01  4.10733E-01  8.59885E-01  0.00+00    spotweld beam  ID    1000000  9.61336E+00  1.77636E-15  3.15285E-04

 constraint #      axial        shear         time  failure                                       length  rslt moment      torsion
          1  2.49092E+01  5.04178E-01  8.64902E-01  0.00+00    spotweld beam  ID    1000000  9.60684E+00  3.55271E-15  6.24523E-04

 constraint #      axial        shear         time  failure                                       length  rslt moment      torsion
          1  2.50538E+01  2.13199E-01  8.69923E-01  0.00+00    spotweld beam  ID    1000000  9.60017E+00  3.55271E-15  9.67371E-04

 constraint #      axial        shear         time  failure                                       length  rslt moment      torsion
          1  2.51985E+01  2.41161E-01  8.74949E-01  0.00+00    spotweld beam  ID    1000000  9.59344E+00  3.97205E-15  1.11667E-03

 constraint #      axial        shear         time  failure                                       length  rslt moment      torsion
          1  2.53431E+01  2.06429E-01  8.79968E-01  0.00+00    spotweld beam  ID    1000000  9.58676E+00  1.77636E-15  9.91209E-04

 constraint #      axial        shear         time  failure                                       length  rslt moment      torsion
          1  2.54876E+01  2.77413E-02  8.84988E-01  0.00+00    spotweld beam  ID    1000000  9.58015E+00  1.77636E-15  7.03280E-04

 constraint #      axial        shear         time  failure                                       length  rslt moment      torsion
          1  2.56265E+01  9.08987E-01  8.89811E-01  0.00+00    spotweld beam  ID    1000000  9.57385E+00  5.02430E-15  3.94866E-04

 constraint #      axial        shear         time  failure                                       length  rslt moment      torsion
          1  2.57712E+01  9.71267E-01  8.94834E-01  0.00+00    spotweld beam  ID    1000000  9.56728E+00  5.02430E-15  1.55462E-04

 constraint #      axial        shear         time  failure                                       length  rslt moment      torsion
          1  2.59159E+01  9.12019E-02  8.99858E-01  0.00+00    spotweld beam  ID    1000000  9.56067E+00  3.55271E-15  4.54615E-05

 constraint #      axial        shear         time  failure                                       length  rslt moment      torsion
          1  2.60608E+01  3.94366E-01  9.04887E-01  0.00+00    spotweld beam  ID    1000000  9.55386E+00  3.55271E-15 -3.33361E-05

 constraint #      axial        shear         time  failure                                       length  rslt moment      torsion
          1  2.62057E+01  2.63420E-02  9.09920E-01  0.00+00    spotweld beam  ID    1000000  9.54634E+00  5.02430E-15 -3.09193E-04

 constraint #      axial        shear         time  failure                                       length  rslt moment      torsion
          1  2.63503E+01  2.41728E-01  9.14942E-01  0.00+00    spotweld beam  ID    1000000  9.53888E+00  5.02430E-15 -8.28832E-04

 constraint #      axial        shear         time  failure                                       length  rslt moment      torsion
          1  2.64949E+01  4.23200E-01  9.19963E-01  0.00+00    spotweld beam  ID    1000000  9.53193E+00  5.02430E-15 -1.22082E-03

 constraint #      axial        shear         time  failure                                       length  rslt moment      torsion
          1  2.66395E+01  1.04763E+00  9.24984E-01  0.00+00    spotweld beam  ID    1000000  9.52506E+00  3.55271E-15 -1.05912E-03

 constraint #      axial        shear         time  failure                                       length  rslt moment      torsion
          1  2.67784E+01  6.72776E-01  9.29804E-01  0.00+00    spotweld beam  ID    1000000  9.51791E+00  5.02430E-15 -4.55551E-04

 constraint #      axial        shear         time  failure                                       length  rslt moment      torsion
          1  2.69230E+01  8.69847E-02  9.34825E-01  0.00+00    spotweld beam  ID    1000000  9.51059E+00  5.02430E-15  9.90987E-05

 constraint #      axial        shear         time  failure                                       length  rslt moment      torsion
          1  2.70678E+01  2.42767E-01  9.39853E-01  0.00+00    spotweld beam  ID    1000000  9.50413E+00  5.02430E-15  2.45069E-04

 constraint #      axial        shear         time  failure                                       length  rslt moment      torsion
          1  2.72123E+01  6.48590E-01  9.44872E-01  0.00+00    spotweld beam  ID    1000000  9.49850E+00  5.02430E-15  3.18324E-04

 constraint #      axial        shear         time  failure                                       length  rslt moment      torsion
          1  2.73569E+01  3.68151E-01  9.49891E-01  0.00+00    spotweld beam  ID    1000000  9.49337E+00  5.02430E-15  7.85196E-04

 constraint #      axial        shear         time  failure                                       length  rslt moment      torsion
          1  2.75015E+01  3.27877E-01  9.54912E-01  0.00+00    spotweld beam  ID    1000000  9.48847E+00  5.02430E-15  1.41801E-03

 constraint #      axial        shear         time  failure                                       length  rslt moment      torsion
          1  2.76461E+01  6.60440E-01  9.59934E-01  0.00+00    spotweld beam  ID    1000000  9.48363E+00  5.02430E-15  1.60120E-03

 constraint #      axial        shear         time  failure                                       length  rslt moment      torsion
          1  2.77908E+01  4.26091E-01  9.64957E-01  0.00+00    spotweld beam  ID    1000000  9.47774E+00  5.02430E-15  1.18067E-03

 constraint #      axial        shear         time  failure                                       length  rslt moment      torsion
          1  2.79354E+01  3.71338E-01  9.69980E-01  0.00+00    spotweld beam  ID    1000000  9.46959E+00  5.02430E-15  5.95650E-04

 constraint #      axial        shear         time  failure                                       length  rslt moment      torsion
          1  2.80799E+01  6.55961E-01  9.74997E-01  0.00+00    spotweld beam  ID    1000000  9.46082E+00  5.02430E-15  2.56996E-04

 constraint #      axial        shear         time  failure                                       length  rslt moment      torsion
          1  2.82188E+01  5.38750E-01  9.79819E-01  0.00+00    spotweld beam  ID    1000000  9.45258E+00  5.02430E-15 -3.96619E-06

 constraint #      axial        shear         time  failure                                       length  rslt moment      torsion
          1  2.83634E+01  1.24422E-01  9.84841E-01  0.00+00    spotweld beam  ID    1000000  9.44427E+00  3.55271E-15 -5.59033E-04

 constraint #      axial        shear         time  failure                                       length  rslt moment      torsion
          1  2.85079E+01  3.95557E-01  9.89857E-01  0.00+00    spotweld beam  ID    1000000  9.43654E+00  5.02430E-15 -1.24982E-03

 constraint #      axial        shear         time  failure                                       length  rslt moment      torsion
          1  2.86526E+01  7.45423E-02  9.94882E-01  0.00+00    spotweld beam  ID    1000000  9.42963E+00  5.02430E-15 -1.46381E-03

 constraint #      axial        shear         time  failure                                       length  rslt moment      torsion
          1  2.87972E+01  5.77589E-02  9.99901E-01  0.00+00    spotweld beam  ID    1000000  9.42381E+00  5.02430E-15 -8.24939E-04

 constraint #      axial        shear         time  failure                                       length  rslt moment      torsion
          1  2.88262E+01  4.37441E-01  1.00492E+00  0.00+00    spotweld beam  ID    1000000  9.42367E+00  6.06040E-02  3.92136E-04

 constraint #      axial        shear         time  failure                                       length  rslt moment      torsion
          1  2.77001E+01  5.20014E-01  1.00994E+00  0.00+00    spotweld beam  ID    1000000  9.42312E+00  1.00954E-01  1.48957E-03

 constraint #      axial        shear         time  failure                                       length  rslt moment      torsion
          1  2.95591E+01  1.48679E-01  1.01497E+00  0.00+00    spotweld beam  ID    1000000  9.42413E+00  1.01632E-01  1.85221E-03

 constraint #      axial        shear         time  failure                                       length  rslt moment      torsion
          1  2.74688E+01  4.76069E-01  1.01999E+00  0.00+00    spotweld beam  ID    1000000  9.42298E+00  1.37920E-01  1.18340E-03

 constraint #      axial        shear         time  failure                                       length  rslt moment      torsion
          1  2.94094E+01  5.10787E-02  1.02481E+00  0.00+00    spotweld beam  ID    1000000  9.42406E+00  1.78576E-01 -9.70662E-05

 constraint #      axial        shear         time  failure                                       length  rslt moment      torsion
          1  2.74995E+01  3.28816E-01  1.02982E+00  0.00+00    spotweld beam  ID    1000000  9.42295E+00  1.85171E-01 -1.23532E-03

 constraint #      axial        shear         time  failure                                       length  rslt moment      torsion
          1  2.90560E+01  6.47589E-02  1.03484E+00  0.00+00    spotweld beam  ID    1000000  9.42388E+00  1.74027E-01 -1.52182E-03

 constraint #      axial        shear         time  failure                                       length  rslt moment      torsion
          1  2.80634E+01  1.07944E-01  1.03987E+00  0.00+00    spotweld beam  ID    1000000  9.42329E+00  1.46843E-01 -1.14145E-03

 constraint #      axial        shear         time  failure                                       length  rslt moment      torsion
          1  2.84312E+01  1.79019E-01  1.04488E+00  0.00+00    spotweld beam  ID    1000000  9.42353E+00  8.97930E-02 -9.12701E-04

 constraint #      axial        shear         time  failure                                       length  rslt moment      torsion
          1  2.86286E+01  5.03556E-01  1.04990E+00  0.00+00    spotweld beam  ID    1000000  9.42359E+00  1.82820E-02 -1.24979E-03

 constraint #      axial        shear         time  failure                                       length  rslt moment      torsion
          1  2.82283E+01  2.11330E-01  1.05492E+00  0.00+00    spotweld beam  ID    1000000  9.42341E+00  2.93430E-02 -1.64005E-03

 constraint #      axial        shear         time  failure                                       length  rslt moment      torsion
          1  2.87452E+01  4.74986E-01  1.05995E+00  0.00+00    spotweld beam  ID    1000000  9.42368E+00  5.82001E-02 -1.36092E-03

 constraint #      axial        shear         time  failure                                       length  rslt moment      torsion
          1  2.77977E+01  6.34932E-01  1.06497E+00  0.00+00    spotweld beam  ID    1000000  9.42316E+00  1.11699E-01 -4.01897E-04

 constraint #      axial        shear         time  failure                                       length  rslt moment      torsion
          1  2.88729E+01  2.55165E-01  1.07000E+00  0.00+00    spotweld beam  ID    1000000  9.42375E+00  1.48815E-01  5.17996E-04

 constraint #      axial        shear         time  failure                                       length  rslt moment      torsion
          1  2.81600E+01  7.37582E-02  1.07483E+00  0.00+00    spotweld beam  ID    1000000  9.42335E+00  1.39069E-01  7.47203E-04

 constraint #      axial        shear         time  failure                                       length  rslt moment      torsion
          1  2.85798E+01  2.91811E-02  1.07984E+00  0.00+00    spotweld beam  ID    1000000  9.42360E+00  1.01881E-01  4.87262E-04

 constraint #      axial        shear         time  failure                                       length  rslt moment      torsion
          1  2.80607E+01  5.20336E-02  1.08486E+00  0.00+00    spotweld beam  ID    1000000  9.42329E+00  7.40766E-02  4.09442E-04

 constraint #      axial        shear         time  failure                                       length  rslt moment      torsion
          1  2.85336E+01  2.77654E-01  1.08988E+00  0.00+00    spotweld beam  ID    1000000  9.42357E+00  8.26482E-02  7.35336E-04

 constraint #      axial        shear         time  failure                                       length  rslt moment      torsion
          1  2.85188E+01  4.08006E-01  1.09490E+00  0.00+00    spotweld beam  ID    1000000  9.42355E+00  1.15582E-01  9.02936E-04

 constraint #      axial        shear         time  failure                                       length  rslt moment      torsion
          1  2.81727E+01  1.02728E-01  1.09992E+00  0.00+00    spotweld beam  ID    1000000  9.42337E+00  1.39238E-01  3.09888E-04

 constraint #      axial        shear         time  failure                                       length  rslt moment      torsion
          1  2.83835E+01  5.07653E-01  1.10494E+00  0.00+00    spotweld beam  ID    1000000  9.42348E+00  1.34225E-01 -8.21071E-04

 constraint #      axial        shear         time  failure                                       length  rslt moment      torsion
          1  2.82978E+01  3.97823E-01  1.10995E+00  0.00+00    spotweld beam  ID    1000000  9.42343E+00  9.02569E-02 -1.62352E-03

 constraint #      axial        shear         time  failure                                       length  rslt moment      torsion
          1  2.86710E+01  9.86441E-03  1.11497E+00  0.00+00    spotweld beam  ID    1000000  9.42364E+00  6.50268E-02 -1.61880E-03

 constraint #      axial        shear         time  failure                                       length  rslt moment      torsion
          1  2.82437E+01  2.76696E-02  1.12000E+00  0.00+00    spotweld beam  ID    1000000  9.42340E+00  7.20327E-02 -1.21901E-03

 constraint #      axial        shear         time  failure                                       length  rslt moment      torsion
          1  2.83964E+01  1.39575E-01  1.12482E+00  0.00+00    spotweld beam  ID    1000000  9.42349E+00  5.98964E-02 -1.00074E-03

 constraint #      axial        shear         time  failure                                       length  rslt moment      torsion
          1  2.83258E+01  2.22235E-01  1.12985E+00  0.00+00    spotweld beam  ID    1000000  9.42345E+00  6.28057E-02 -8.67025E-04

 constraint #      axial        shear         time  failure                                       length  rslt moment      torsion
          1  2.84314E+01  2.26095E-01  1.13489E+00  0.00+00    spotweld beam  ID    1000000  9.42351E+00  1.35390E-01 -2.78721E-04

 constraint #      axial        shear         time  failure                                       length  rslt moment      torsion
          1  2.83037E+01  6.01629E-02  1.13991E+00  0.00+00    spotweld beam  ID    1000000  9.42343E+00  2.05435E-01  8.12298E-04

 constraint #      axial        shear         time  failure                                       length  rslt moment      torsion
          1  2.83220E+01  1.67507E-01  1.14493E+00  0.00+00    spotweld beam  ID    1000000  9.42345E+00  2.13434E-01  1.71217E-03

 constraint #      axial        shear         time  failure                                       length  rslt moment      torsion
          1  2.84592E+01  6.02739E-02  1.14997E+00  0.00+00    spotweld beam  ID    1000000  9.42352E+00  1.58370E-01  1.75005E-03

 constraint #      axial        shear         time  failure                                       length  rslt moment      torsion
          1  2.82838E+01  2.18456E-01  1.15499E+00  0.00+00    spotweld beam  ID    1000000  9.42343E+00  9.15296E-02  8.92305E-04

 constraint #      axial        shear         time  failure                                       length  rslt moment      torsion
          1  2.83358E+01  2.09718E-01  1.15981E+00  0.00+00    spotweld beam  ID    1000000  9.42345E+00  6.62895E-02 -3.78650E-04

 constraint #      axial        shear         time  failure                                       length  rslt moment      torsion
          1  2.82897E+01  1.24854E-01  1.16482E+00  0.00+00    spotweld beam  ID    1000000  9.42343E+00  8.33298E-02 -1.67996E-03

 constraint #      axial        shear         time  failure                                       length  rslt moment      torsion
          1  2.84428E+01  3.20577E-01  1.16984E+00  0.00+00    spotweld beam  ID    1000000  9.42352E+00  9.62811E-02 -2.35165E-03

 constraint #      axial        shear         time  failure                                       length  rslt moment      torsion
          1  2.83580E+01  3.14997E-01  1.17486E+00  0.00+00    spotweld beam  ID    1000000  9.42347E+00  8.45670E-02 -1.98495E-03

 constraint #      axial        shear         time  failure                                       length  rslt moment      torsion
          1  2.83694E+01  2.03060E-01  1.17988E+00  0.00+00    spotweld beam  ID    1000000  9.42347E+00  5.72944E-02 -9.69479E-04

 constraint #      axial        shear         time  failure                                       length  rslt moment      torsion
          1  2.83903E+01  3.66746E-01  1.18490E+00  0.00+00    spotweld beam  ID    1000000  9.42348E+00  3.53041E-02 -2.61126E-04

 constraint #      axial        shear         time  failure                                       length  rslt moment      torsion
          1  2.83661E+01  2.78497E-01  1.18995E+00  0.00+00    spotweld beam  ID    1000000  9.42347E+00  4.26040E-02 -3.97206E-04

 constraint #      axial        shear         time  failure                                       length  rslt moment      torsion
          1  2.83054E+01  1.02276E-01  1.19497E+00  0.00+00    spotweld beam  ID    1000000  9.42344E+00  7.65469E-02 -9.86648E-04

 constraint #      axial        shear         time  failure                                       length  rslt moment      torsion
          1  2.82823E+01  2.22544E-02  1.19998E+00  0.00+00    spotweld beam  ID    1000000  9.42342E+00  1.01768E-01 -1.18974E-03

 constraint #      axial        shear         time  failure                                       length  rslt moment      torsion
          1  2.84501E+01  1.12582E-01  1.20481E+00  0.00+00    spotweld beam  ID    1000000  9.42352E+00  1.13247E-01 -6.75380E-04

 constraint #      axial        shear         time  failure                                       length  rslt moment      torsion
          1  2.83400E+01  4.91134E-02  1.20983E+00  0.00+00    spotweld beam  ID    1000000  9.42346E+00  1.21412E-01  1.53828E-04

 constraint #      axial        shear         time  failure                                       length  rslt moment      torsion
          1  2.83128E+01  1.58788E-01  1.21484E+00  0.00+00    spotweld beam  ID    1000000  9.42344E+00  1.24329E-01  6.35921E-04

 constraint #      axial        shear         time  failure                                       length  rslt moment      torsion
          1  2.82987E+01  4.76945E-01  1.21986E+00  0.00+00    spotweld beam  ID    1000000  9.42343E+00  1.16080E-01  6.49389E-04

 constraint #      axial        shear         time  failure                                       length  rslt moment      torsion
          1  2.83443E+01  7.18495E-01  1.22488E+00  0.00+00    spotweld beam  ID    1000000  9.42346E+00  1.11659E-01  4.18000E-04

 constraint #      axial        shear         time  failure                                       length  rslt moment      torsion
          1  2.82983E+01  7.42366E-01  1.22990E+00  0.00+00    spotweld beam  ID    1000000  9.42343E+00  1.28869E-01  2.62805E-05

 constraint #      axial        shear         time  failure                                       length  rslt moment      torsion
          1  2.82755E+01  3.79909E-01  1.23492E+00  0.00+00    spotweld beam  ID    1000000  9.42342E+00  1.68801E-01 -5.80753E-04

 constraint #      axial        shear         time  failure                                       length  rslt moment      torsion
          1  2.83872E+01  1.24492E-01  1.23993E+00  0.00+00    spotweld beam  ID    1000000  9.42348E+00  1.91768E-01 -1.27021E-03

 constraint #      axial        shear         time  failure                                       length  rslt moment      torsion
          1  2.83499E+01  9.06816E-02  1.24496E+00  0.00+00    spotweld beam  ID    1000000  9.42346E+00  1.62874E-01 -1.80531E-03

 constraint #      axial        shear         time  failure                                       length  rslt moment      torsion
          1  2.82688E+01  7.80392E-02  1.24998E+00  0.00+00    spotweld beam  ID    1000000  9.42342E+00  8.09822E-02 -2.01993E-03

 constraint #      axial        shear         time  failure                                       length  rslt moment      torsion
          1  2.82520E+01  8.53963E-02  1.25500E+00  0.00+00    spotweld beam  ID    1000000  9.42340E+00  2.76653E-02 -1.80116E-03

 constraint #      axial        shear         time  failure                                       length  rslt moment      torsion
          1  2.83553E+01  3.74717E-02  1.25982E+00  0.00+00    spotweld beam  ID    1000000  9.42346E+00  9.48433E-02 -1.11300E-03

 constraint #      axial        shear         time  failure                                       length  rslt moment      torsion
          1  2.83888E+01  1.46946E-01  1.26485E+00  0.00+00    spotweld beam  ID    1000000  9.42348E+00  1.04441E-01 -9.09715E-05

 constraint #      axial        shear         time  failure                                       length  rslt moment      torsion
          1  2.82650E+01  3.04866E-01  1.26987E+00  0.00+00    spotweld beam  ID    1000000  9.42341E+00  7.07870E-02  6.97428E-04

 constraint #      axial        shear         time  failure                                       length  rslt moment      torsion
          1  2.82202E+01  4.69959E-01  1.27488E+00  0.00+00    spotweld beam  ID    1000000  9.42339E+00  6.94756E-02  8.54981E-04

 constraint #      axial        shear         time  failure                                       length  rslt moment      torsion
          1  2.82998E+01  2.02641E-01  1.27990E+00  0.00+00    spotweld beam  ID    1000000  9.42343E+00  9.17295E-02  5.63230E-04

 constraint #      axial        shear         time  failure                                       length  rslt moment      torsion
          1  2.83812E+01  4.59473E-02  1.28493E+00  0.00+00    spotweld beam  ID    1000000  9.42348E+00  1.12374E-01  2.83486E-04

 constraint #      axial        shear         time  failure                                       length  rslt moment      torsion
          1  2.83308E+01  1.87431E-01  1.28995E+00  0.00+00    spotweld beam  ID    1000000  9.42345E+00  1.36156E-01  1.64918E-04

 constraint #      axial        shear         time  failure                                       length  rslt moment      torsion
          1  2.83387E+01  2.98440E-01  1.29497E+00  0.00+00    spotweld beam  ID    1000000  9.42346E+00  1.58001E-01 -1.76795E-04

 constraint #      axial        shear         time  failure                                       length  rslt moment      torsion
          1  2.82778E+01  3.32985E-01  1.30000E+00  0.00+00    spotweld beam  ID    1000000  9.42342E+00  1.70796E-01 -1.08914E-03

 constraint #      axial        shear         time  failure                                       length  rslt moment      torsion
          1  2.82891E+01  2.83510E-02  1.30485E+00  0.00+00    spotweld beam  ID    1000000  9.42343E+00  1.67416E-01 -2.13967E-03

 constraint #      axial        shear         time  failure                                       length  rslt moment      torsion
          1  2.82991E+01  2.33276E-01  1.30987E+00  0.00+00    spotweld beam  ID    1000000  9.42343E+00  1.29168E-01 -2.51505E-03

 constraint #      axial        shear         time  failure                                       length  rslt moment      torsion
          1  2.82868E+01  2.05503E-01  1.31488E+00  0.00+00    spotweld beam  ID    1000000  9.42343E+00  4.16728E-02 -1.79751E-03

 constraint #      axial        shear         time  failure                                       length  rslt moment      torsion
          1  2.82892E+01  1.31838E-01  1.31991E+00  0.00+00    spotweld beam  ID    1000000  9.42343E+00  7.51793E-02 -6.75990E-04

 constraint #      axial        shear         time  failure                                       length  rslt moment      torsion
          1  2.82751E+01  3.91171E-01  1.32493E+00  0.00+00    spotweld beam  ID    1000000  9.42342E+00  1.48863E-01 -1.47156E-04

 constraint #      axial        shear         time  failure                                       length  rslt moment      torsion
          1  2.83465E+01  5.06750E-01  1.32994E+00  0.00+00    spotweld beam  ID    1000000  9.42346E+00  1.39652E-01 -4.33874E-04

 constraint #      axial        shear         time  failure                                       length  rslt moment      torsion
          1  2.83721E+01  2.04993E-01  1.33496E+00  0.00+00    spotweld beam  ID    1000000  9.42347E+00  8.92959E-02 -8.10224E-04

 constraint #      axial        shear         time  failure                                       length  rslt moment      torsion
          1  2.82933E+01  2.75146E-01  1.33999E+00  0.00+00    spotweld beam  ID    1000000  9.42343E+00  1.46034E-01 -4.40386E-04

 constraint #      axial        shear         time  failure                                       length  rslt moment      torsion
          1  2.82102E+01  5.19815E-01  1.34482E+00  0.00+00    spotweld beam  ID    1000000  9.42338E+00  2.12198E-01  5.58052E-04

 constraint #      axial        shear         time  failure                                       length  rslt moment      torsion
          1  2.82962E+01  3.38134E-01  1.34984E+00  0.00+00    spotweld beam  ID    1000000  9.42343E+00  2.04734E-01  1.37221E-03

 constraint #      axial        shear         time  failure                                       length  rslt moment      torsion
          1  2.83813E+01  5.29620E-02  1.35486E+00  0.00+00    spotweld beam  ID    1000000  9.42348E+00  1.27121E-01  1.21455E-03

 constraint #      axial        shear         time  failure                                       length  rslt moment      torsion
          1  2.83470E+01  1.75968E-01  1.35991E+00  0.00+00    spotweld beam  ID    1000000  9.42346E+00  3.94276E-02  2.44185E-04

 constraint #      axial        shear         time  failure                                       length  rslt moment      torsion
          1  2.82853E+01  3.72553E-01  1.36495E+00  0.00+00    spotweld beam  ID    1000000  9.42343E+00  4.80256E-02 -8.04394E-04

 constraint #      axial        shear         time  failure                                       length  rslt moment      torsion
          1  2.82168E+01  3.05125E-01  1.36997E+00  0.00+00    spotweld beam  ID    1000000  9.42339E+00  4.30206E-02 -1.48983E-03

 constraint #      axial        shear         time  failure                                       length  rslt moment      torsion
          1  2.82425E+01  7.90801E-02  1.37499E+00  0.00+00    spotweld beam  ID    1000000  9.42340E+00  6.86542E-02 -1.90102E-03

 constraint #      axial        shear         time  failure                                       length  rslt moment      torsion
          1  2.82384E+01  3.84922E-01  1.37982E+00  0.00+00    spotweld beam  ID    1000000  9.42340E+00  1.37536E-01 -2.23889E-03

 constraint #      axial        shear         time  failure                                       length  rslt moment      torsion
          1  2.83090E+01  4.29525E-01  1.38484E+00  0.00+00    spotweld beam  ID    1000000  9.42344E+00  1.75364E-01 -2.45793E-03

 constraint #      axial        shear         time  failure                                       length  rslt moment      torsion
          1  2.83245E+01  3.41293E-01  1.38986E+00  0.00+00    spotweld beam  ID    1000000  9.42345E+00  1.62790E-01 -2.23450E-03

 constraint #      axial        shear         time  failure                                       length  rslt moment      torsion
          1  2.83293E+01  1.07911E-01  1.39488E+00  0.00+00    spotweld beam  ID    1000000  9.42345E+00  1.14743E-01 -1.38060E-03

 constraint #      axial        shear         time  failure                                       length  rslt moment      torsion
          1  2.82628E+01  1.10285E-01  1.39992E+00  0.00+00    spotweld beam  ID    1000000  9.42341E+00  5.21979E-02 -1.97423E-04

 constraint #      axial        shear         time  failure                                       length  rslt moment      torsion
          1  2.82305E+01  1.91741E-01  1.40493E+00  0.00+00    spotweld beam  ID    1000000  9.42339E+00  6.24786E-02  5.79657E-04

 constraint #      axial        shear         time  failure                                       length  rslt moment      torsion
          1  2.83040E+01  1.14425E-01  1.40995E+00  0.00+00    spotweld beam  ID    1000000  9.42343E+00  1.37328E-01  4.76162E-04

 constraint #      axial        shear         time  failure                                       length  rslt moment      torsion
          1  2.83595E+01  8.46462E-02  1.41496E+00  0.00+00    spotweld beam  ID    1000000  9.42347E+00  1.78041E-01 -9.22879E-05

 constraint #      axial        shear         time  failure                                       length  rslt moment      torsion
          1  2.82907E+01  9.49517E-02  1.41998E+00  0.00+00    spotweld beam  ID    1000000  9.42343E+00  1.59506E-01 -2.71794E-04

 constraint #      axial        shear         time  failure                                       length  rslt moment      torsion
          1  2.82454E+01  9.38198E-02  1.42481E+00  0.00+00    spotweld beam  ID    1000000  9.42340E+00  8.97822E-02  1.16766E-04

 constraint #      axial        shear         time  failure                                       length  rslt moment      torsion
          1  2.83272E+01  1.16560E-01  1.42984E+00  0.00+00    spotweld beam  ID    1000000  9.42345E+00  4.10132E-02  4.04212E-04

 constraint #      axial        shear         time  failure                                       length  rslt moment      torsion
          1  2.83222E+01  2.22238E-01  1.43489E+00  0.00+00    spotweld beam  ID    1000000  9.42345E+00  1.15716E-01 -2.08102E-04

 constraint #      axial        shear         time  failure                                       length  rslt moment      torsion
          1  2.81911E+01  1.10661E-01  1.43991E+00  0.00+00    spotweld beam  ID    1000000  9.42337E+00  1.49107E-01 -1.62720E-03

 constraint #      axial        shear         time  failure                                       length  rslt moment      torsion
          1  2.81729E+01  6.29164E-02  1.44492E+00  0.00+00    spotweld beam  ID    1000000  9.42336E+00  1.60638E-01 -2.83922E-03

 constraint #      axial        shear         time  failure                                       length  rslt moment      torsion
          1  2.83079E+01  1.42141E-02  1.44994E+00  0.00+00    spotweld beam  ID    1000000  9.42344E+00  1.81068E-01 -2.87559E-03

 constraint #      axial        shear         time  failure                                       length  rslt moment      torsion
          1  2.83734E+01  2.38885E-01  1.45496E+00  0.00+00    spotweld beam  ID    1000000  9.42347E+00  1.68260E-01 -1.89243E-03

 constraint #      axial        shear         time  failure                                       length  rslt moment      torsion
          1  2.82527E+01  4.09215E-01  1.45998E+00  0.00+00    spotweld beam  ID    1000000  9.42341E+00  1.18502E-01 -9.87555E-04

 constraint #      axial        shear         time  failure                                       length  rslt moment      torsion
          1  2.82047E+01  3.26405E-01  1.46499E+00  0.00+00    spotweld beam  ID    1000000  9.42338E+00  9.87838E-02 -8.08477E-04

 constraint #      axial        shear         time  failure                                       length  rslt moment      torsion
          1  2.82808E+01  1.41572E-01  1.46986E+00  0.00+00    spotweld beam  ID    1000000  9.42342E+00  1.06083E-01 -8.90836E-04

 constraint #      axial        shear         time  failure                                       length  rslt moment      torsion
          1  2.82992E+01  5.64241E-02  1.47488E+00  0.00+00    spotweld beam  ID    1000000  9.42343E+00  9.55028E-02 -5.28241E-04

 constraint #      axial        shear         time  failure                                       length  rslt moment      torsion
          1  2.82683E+01  2.89837E-01  1.47990E+00  0.00+00    spotweld beam  ID    1000000  9.42341E+00  8.39597E-02  2.52652E-04

 constraint #      axial        shear         time  failure                                       length  rslt moment      torsion
          1  2.82894E+01  4.46881E-01  1.48492E+00  0.00+00    spotweld beam  ID    1000000  9.42343E+00  8.62635E-02  7.52550E-04

 constraint #      axial        shear         time  failure                                       length  rslt moment      torsion
          1  2.82963E+01  1.90303E-01  1.48995E+00  0.00+00    spotweld beam  ID    1000000  9.42343E+00  9.35894E-02  4.93616E-04

 constraint #      axial        shear         time  failure                                       length  rslt moment      torsion
          1  2.82432E+01  5.65443E-02  1.49496E+00  0.00+00    spotweld beam  ID    1000000  9.42340E+00  1.32588E-01 -2.53713E-04

 constraint #      axial        shear         time  failure                                       length  rslt moment      torsion
          1  2.82586E+01  1.42813E-01  1.49998E+00  0.00+00    spotweld beam  ID    1000000  9.42341E+00  1.61396E-01 -8.59563E-04

 constraint #      axial        shear         time  failure                                       length  rslt moment      torsion
          1  2.83240E+01  7.06111E-02  1.50481E+00  0.00+00    spotweld beam  ID    1000000  9.42345E+00  1.35467E-01 -1.06196E-03

 constraint #      axial        shear         time  failure                                       length  rslt moment      torsion
          1  2.82929E+01  1.15619E-01  1.50985E+00  0.00+00    spotweld beam  ID    1000000  9.42343E+00  6.30090E-02 -1.14343E-03

 constraint #      axial        shear         time  failure                                       length  rslt moment      torsion
[...]

 constraint #      axial        shear         time  failure                                       length  rslt moment      torsion
          1  2.21726E+01  1.83967E+00  4.62492E+00  0.00+00    spotweld beam  ID    1000000  9.41992E+00  2.71296E+00 -1.31977E-01

 constraint #      axial        shear         time  failure                                       length  rslt moment      torsion
          1  2.20593E+01  1.66182E+00  4.62989E+00  0.00+00    spotweld beam  ID    1000000  9.41985E+00  2.55241E+00 -1.13101E-01

 constraint #      axial        shear         time  failure                                       length  rslt moment      torsion
          1  2.20713E+01  1.77155E+00  4.63487E+00  0.00+00    spotweld beam  ID    1000000  9.41986E+00  2.48772E+00 -9.12842E-02

 constraint #      axial        shear         time  failure                                       length  rslt moment      torsion
          1  2.20835E+01  1.91209E+00  4.63984E+00  0.00+00    spotweld beam  ID    1000000  9.41987E+00  2.52253E+00 -7.16094E-02

 constraint #      axial        shear         time  failure                                       length  rslt moment      torsion
          1  2.20477E+01  2.11288E+00  4.64480E+00  0.00+00    spotweld beam  ID    1000000  9.41985E+00  2.63627E+00 -5.86332E-02

 constraint #      axial        shear         time  failure                                       length  rslt moment      torsion
          1  2.20537E+01  2.15754E+00  4.64997E+00  0.00+00    spotweld beam  ID    1000000  9.41985E+00  2.80053E+00 -5.53098E-02

 constraint #      axial        shear         time  failure                                       length  rslt moment      torsion
          1  2.20879E+01  2.14119E+00  4.65493E+00  0.00+00    spotweld beam  ID    1000000  9.41987E+00  2.96261E+00 -6.22814E-02

 constraint #      axial        shear         time  failure                                       length  rslt moment      torsion
          1  2.21371E+01  2.06467E+00  4.65992E+00  0.00+00    spotweld beam  ID    1000000  9.41990E+00  3.08448E+00 -7.69992E-02

 constraint #      axial        shear         time  failure                                       length  rslt moment      torsion
          1  2.20795E+01  2.08840E+00  4.66489E+00  0.00+00    spotweld beam  ID    1000000  9.41987E+00  3.12198E+00 -9.51855E-02

 constraint #      axial        shear         time  failure                                       length  rslt moment      torsion
          1  2.20980E+01  2.08016E+00  4.66985E+00  0.00+00    spotweld beam  ID    1000000  9.41988E+00  3.04810E+00 -1.11969E-01

 constraint #      axial        shear         time  failure                                       length  rslt moment      torsion
          1  2.21178E+01  2.12021E+00  4.67483E+00  0.00+00    spotweld beam  ID    1000000  9.41989E+00  2.87748E+00 -1.23364E-01

 constraint #      axial        shear         time  failure                                       length  rslt moment      torsion
          1  2.21077E+01  1.95565E+00  4.68000E+00  0.00+00    spotweld beam  ID    1000000  9.41988E+00  2.66436E+00 -1.26862E-01

 constraint #      axial        shear         time  failure                                       length  rslt moment      torsion
          1  2.20718E+01  1.95289E+00  4.68495E+00  0.00+00    spotweld beam  ID    1000000  9.41986E+00  2.50677E+00 -1.21953E-01

 constraint #      axial        shear         time  failure                                       length  rslt moment      torsion
          1  2.20483E+01  1.99872E+00  4.68991E+00  0.00+00    spotweld beam  ID    1000000  9.41985E+00  2.44815E+00 -1.10406E-01

 constraint #      axial        shear         time  failure                                       length  rslt moment      torsion
          1  2.21091E+01  2.20134E+00  4.69488E+00  0.00+00    spotweld beam  ID    1000000  9.41988E+00  2.49616E+00 -9.45391E-02

 constraint #      axial        shear         time  failure                                       length  rslt moment      torsion
          1  2.20928E+01  2.23163E+00  4.69986E+00  0.00+00    spotweld beam  ID    1000000  9.41987E+00  2.62838E+00 -7.71834E-02

 constraint #      axial        shear         time  failure                                       length  rslt moment      torsion
          1  2.20610E+01  2.16208E+00  4.70482E+00  0.00+00    spotweld beam  ID    1000000  9.41985E+00  2.79495E+00 -6.14424E-02

 constraint #      axial        shear         time  failure                                       length  rslt moment      torsion
          1  2.20177E+01  1.97884E+00  4.70998E+00  0.00+00    spotweld beam  ID    1000000  9.41983E+00  2.92902E+00 -4.95683E-02

 constraint #      axial        shear         time  failure                                       length  rslt moment      torsion
          1  2.20393E+01  1.94904E+00  4.71497E+00  0.00+00    spotweld beam  ID    1000000  9.41984E+00  2.95177E+00 -4.43779E-02

 constraint #      axial        shear         time  failure                                       length  rslt moment      torsion
          1  2.20106E+01  2.09366E+00  4.71993E+00  0.00+00    spotweld beam  ID    1000000  9.41983E+00  2.85089E+00 -4.60001E-02

 constraint #      axial        shear         time  failure                                       length  rslt moment      torsion
          1  2.19804E+01  2.15161E+00  4.72490E+00  0.00+00    spotweld beam  ID    1000000  9.41981E+00  2.65719E+00 -5.40068E-02

 constraint #      axial        shear         time  failure                                       length  rslt moment      torsion
          1  2.20035E+01  2.11045E+00  4.72986E+00  0.00+00    spotweld beam  ID    1000000  9.41982E+00  2.43182E+00 -6.69812E-02

 constraint #      axial        shear         time  failure                                       length  rslt moment      torsion
          1  2.20399E+01  2.01783E+00  4.73482E+00  0.00+00    spotweld beam  ID    1000000  9.41984E+00  2.24859E+00 -8.26412E-02

 constraint #      axial        shear         time  failure                                       length  rslt moment      torsion
          1  2.20249E+01  2.14409E+00  4.73999E+00  0.00+00    spotweld beam  ID    1000000  9.41984E+00  2.17298E+00 -9.83064E-02

 constraint #      axial        shear         time  failure                                       length  rslt moment      torsion
          1  2.19054E+01  2.29369E+00  4.74495E+00  0.00+00    spotweld beam  ID    1000000  9.41976E+00  2.22815E+00 -1.08938E-01

 constraint #      axial        shear         time  failure                                       length  rslt moment      torsion
          1  2.19951E+01  2.23084E+00  4.74991E+00  0.00+00    spotweld beam  ID    1000000  9.41982E+00  2.36035E+00 -1.11806E-01

 constraint #      axial        shear         time  failure                                       length  rslt moment      torsion
          1  2.20257E+01  1.96167E+00  4.75487E+00  0.00+00    spotweld beam  ID    1000000  9.41983E+00  2.51441E+00 -1.05024E-01

 constraint #      axial        shear         time  failure                                       length  rslt moment      torsion
          1  2.19556E+01  1.78794E+00  4.75985E+00  0.00+00    spotweld beam  ID    1000000  9.41980E+00  2.65949E+00 -8.90257E-02

 constraint #      axial        shear         time  failure                                       length  rslt moment      torsion
          1  2.19311E+01  1.80993E+00  4.76481E+00  0.00+00    spotweld beam  ID    1000000  9.41978E+00  2.76598E+00 -6.71440E-02

 constraint #      axial        shear         time  failure                                       length  rslt moment      torsion
          1  2.19338E+01  1.90361E+00  4.76996E+00  0.00+00    spotweld beam  ID    1000000  9.41978E+00  2.79288E+00 -4.35247E-02

 constraint #      axial        shear         time  failure                                       length  rslt moment      torsion
          1  2.19831E+01  1.90166E+00  4.77495E+00  0.00+00    spotweld beam  ID    1000000  9.41981E+00  2.70458E+00 -2.53562E-02

 constraint #      axial        shear         time  failure                                       length  rslt moment      torsion
          1  2.19089E+01  1.91333E+00  4.77994E+00  0.00+00    spotweld beam  ID    1000000  9.41977E+00  2.51941E+00 -1.60537E-02

 constraint #      axial        shear         time  failure                                       length  rslt moment      torsion
          1  2.19043E+01  1.98108E+00  4.78491E+00  0.00+00    spotweld beam  ID    1000000  9.41977E+00  2.29298E+00 -1.79165E-02

 constraint #      axial        shear         time  failure                                       length  rslt moment      torsion
          1  2.18897E+01  2.05694E+00  4.78988E+00  0.00+00    spotweld beam  ID    1000000  9.41976E+00  2.08387E+00 -3.08324E-02

 constraint #      axial        shear         time  failure                                       length  rslt moment      torsion
          1  2.18842E+01  1.89928E+00  4.79487E+00  0.00+00    spotweld beam  ID    1000000  9.41975E+00  1.93545E+00 -5.26009E-02

 constraint #      axial        shear         time  failure                                       length  rslt moment      torsion
          1  2.18540E+01  1.82627E+00  4.79983E+00  0.00+00    spotweld beam  ID    1000000  9.41974E+00  1.88849E+00 -7.90058E-02

 constraint #      axial        shear         time  failure                                       length  rslt moment      torsion
          1  2.18401E+01  1.83963E+00  4.80500E+00  0.00+00    spotweld beam  ID    1000000  9.41973E+00  1.97477E+00 -1.06514E-01

 constraint #      axial        shear         time  failure                                       length  rslt moment      torsion
          1  2.19188E+01  1.95460E+00  4.80996E+00  0.00+00    spotweld beam  ID    1000000  9.41977E+00  2.17405E+00 -1.28416E-01

 constraint #      axial        shear         time  failure                                       length  rslt moment      torsion
          1  2.19019E+01  1.95285E+00  4.81492E+00  0.00+00    spotweld beam  ID    1000000  9.41976E+00  2.42603E+00 -1.42777E-01

 constraint #      axial        shear         time  failure                                       length  rslt moment      torsion
          1  2.19049E+01  2.08051E+00  4.81988E+00  0.00+00    spotweld beam  ID    1000000  9.41977E+00  2.64549E+00 -1.47670E-01

 constraint #      axial        shear         time  failure                                       length  rslt moment      torsion
          1  2.18640E+01  2.10233E+00  4.82484E+00  0.00+00    spotweld beam  ID    1000000  9.41974E+00  2.76503E+00 -1.41596E-01

 constraint #      axial        shear         time  failure                                       length  rslt moment      torsion
          1  2.19067E+01  2.06093E+00  4.82981E+00  0.00+00    spotweld beam  ID    1000000  9.41977E+00  2.73900E+00 -1.24143E-01

 constraint #      axial        shear         time  failure                                       length  rslt moment      torsion
          1  2.19124E+01  1.88938E+00  4.83497E+00  0.00+00    spotweld beam  ID    1000000  9.41977E+00  2.56275E+00 -9.60316E-02

 constraint #      axial        shear         time  failure                                       length  rslt moment      torsion
          1  2.18780E+01  1.89355E+00  4.83994E+00  0.00+00    spotweld beam  ID    1000000  9.41975E+00  2.33075E+00 -6.39364E-02

 constraint #      axial        shear         time  failure                                       length  rslt moment      torsion
          1  2.18752E+01  1.95120E+00  4.84489E+00  0.00+00    spotweld beam  ID    1000000  9.41975E+00  2.14356E+00 -3.31046E-02

 constraint #      axial        shear         time  failure                                       length  rslt moment      torsion
          1  2.18652E+01  1.96859E+00  4.84987E+00  0.00+00    spotweld beam  ID    1000000  9.41974E+00  2.05698E+00 -9.36100E-03

 constraint #      axial        shear         time  failure                                       length  rslt moment      torsion
          1  2.19034E+01  1.71012E+00  4.85485E+00  0.00+00    spotweld beam  ID    1000000  9.41976E+00  2.06911E+00  2.35357E-03

 constraint #      axial        shear         time  failure                                       length  rslt moment      torsion
          1  2.18433E+01  1.81784E+00  4.85982E+00  0.00+00    spotweld beam  ID    1000000  9.41973E+00  2.15323E+00 -2.88338E-04

 constraint #      axial        shear         time  failure                                       length  rslt moment      torsion
          1  2.18680E+01  2.03061E+00  4.86480E+00  0.00+00    spotweld beam  ID    1000000  9.41974E+00  2.27568E+00 -1.65803E-02

 constraint #      axial        shear         time  failure                                       length  rslt moment      torsion
          1  2.18686E+01  2.22134E+00  4.86998E+00  0.00+00    spotweld beam  ID    1000000  9.41974E+00  2.39444E+00 -4.39378E-02

 constraint #      axial        shear         time  failure                                       length  rslt moment      torsion
          1  2.18414E+01  2.05515E+00  4.87495E+00  0.00+00    spotweld beam  ID    1000000  9.41973E+00  2.44624E+00 -7.38303E-02

 constraint #      axial        shear         time  failure                                       length  rslt moment      torsion
          1  2.18184E+01  2.12484E+00  4.87992E+00  0.00+00    spotweld beam  ID    1000000  9.41972E+00  2.41641E+00 -1.00575E-01

 constraint #      axial        shear         time  failure                                       length  rslt moment      torsion
          1  2.18819E+01  2.23021E+00  4.88487E+00  0.00+00    spotweld beam  ID    1000000  9.41975E+00  2.33134E+00 -1.18222E-01

 constraint #      axial        shear         time  failure                                       length  rslt moment      torsion
          1  2.19180E+01  2.36271E+00  4.88984E+00  0.00+00    spotweld beam  ID    1000000  9.41977E+00  2.24462E+00 -1.23264E-01

 constraint #      axial        shear         time  failure                                       length  rslt moment      torsion
          1  2.18714E+01  2.25854E+00  4.89480E+00  0.00+00    spotweld beam  ID    1000000  9.41975E+00  2.19145E+00 -1.14668E-01

 constraint #      axial        shear         time  failure                                       length  rslt moment      torsion
          1  2.18582E+01  2.13978E+00  4.89996E+00  0.00+00    spotweld beam  ID    1000000  9.41974E+00  2.17340E+00 -9.32540E-02

 constraint #      axial        shear         time  failure                                       length  rslt moment      torsion
          1  2.18904E+01  2.13402E+00  4.90492E+00  0.00+00    spotweld beam  ID    1000000  9.41976E+00  2.18546E+00 -6.48435E-02

 constraint #      axial        shear         time  failure                                       length  rslt moment      torsion
          1  2.19096E+01  2.19830E+00  4.90989E+00  0.00+00    spotweld beam  ID    1000000  9.41977E+00  2.22387E+00 -3.46483E-02

 constraint #      axial        shear         time  failure                                       length  rslt moment      torsion
          1  2.18593E+01  2.33911E+00  4.91485E+00  0.00+00    spotweld beam  ID    1000000  9.41974E+00  2.28620E+00 -8.86325E-03

 constraint #      axial        shear         time  failure                                       length  rslt moment      torsion
          1  2.19198E+01  2.17932E+00  4.91982E+00  0.00+00    spotweld beam  ID    1000000  9.41977E+00  2.36560E+00  7.44359E-03

 constraint #      axial        shear         time  failure                                       length  rslt moment      torsion
          1  2.18426E+01  2.13305E+00  4.92497E+00  0.00+00    spotweld beam  ID    1000000  9.41973E+00  2.44692E+00  1.11574E-02

 constraint #      axial        shear         time  failure                                       length  rslt moment      torsion
          1  2.18851E+01  1.98973E+00  4.92994E+00  0.00+00    spotweld beam  ID    1000000  9.41976E+00  2.49055E+00  1.48632E-03

 constraint #      axial        shear         time  failure                                       length  rslt moment      torsion
          1  2.18569E+01  2.02530E+00  4.93491E+00  0.00+00    spotweld beam  ID    1000000  9.41974E+00  2.46689E+00 -1.90157E-02

 constraint #      axial        shear         time  failure                                       length  rslt moment      torsion
          1  2.18190E+01  2.04272E+00  4.93988E+00  0.00+00    spotweld beam  ID    1000000  9.41972E+00  2.35975E+00 -4.60089E-02

 constraint #      axial        shear         time  failure                                       length  rslt moment      torsion
          1  2.18196E+01  2.14330E+00  4.94485E+00  0.00+00    spotweld beam  ID    1000000  9.41972E+00  2.17805E+00 -7.39205E-02

 constraint #      axial        shear         time  failure                                       length  rslt moment      torsion
          1  2.17399E+01  1.96565E+00  4.94982E+00  0.00+00    spotweld beam  ID    1000000  9.41967E+00  1.95821E+00 -9.69136E-02

 constraint #      axial        shear         time  failure                                       length  rslt moment      torsion
          1  2.18119E+01  1.99684E+00  4.95498E+00  0.00+00    spotweld beam  ID    1000000  9.41971E+00  1.75719E+00 -1.10298E-01

 constraint #      axial        shear         time  failure                                       length  rslt moment      torsion
          1  2.17674E+01  2.05096E+00  4.95995E+00  0.00+00    spotweld beam  ID    1000000  9.41969E+00  1.68150E+00 -1.10019E-01

 constraint #      axial        shear         time  failure                                       length  rslt moment      torsion
          1  2.18650E+01  2.31994E+00  4.96492E+00  0.00+00    spotweld beam  ID    1000000  9.41974E+00  1.77578E+00 -9.64986E-02

 constraint #      axial        shear         time  failure                                       length  rslt moment      torsion
          1  2.18072E+01  2.24176E+00  4.96989E+00  0.00+00    spotweld beam  ID    1000000  9.41971E+00  2.01347E+00 -7.23171E-02

 constraint #      axial        shear         time  failure                                       length  rslt moment      torsion
          1  2.18170E+01  2.10236E+00  4.97485E+00  0.00+00    spotweld beam  ID    1000000  9.41972E+00  2.30031E+00 -4.25339E-02

 constraint #      axial        shear         time  failure                                       length  rslt moment      torsion
          1  2.18501E+01  1.86623E+00  4.97980E+00  0.00+00    spotweld beam  ID    1000000  9.41973E+00  2.52027E+00 -1.34586E-02

 constraint #      axial        shear         time  failure                                       length  rslt moment      torsion
          1  2.18645E+01  1.96671E+00  4.98497E+00  0.00+00    spotweld beam  ID    1000000  9.41974E+00  2.58827E+00  9.44168E-03

 constraint #      axial        shear         time  failure                                       length  rslt moment      torsion
          1  2.18712E+01  1.93858E+00  4.98996E+00  0.00+00    spotweld beam  ID    1000000  9.41975E+00  2.47326E+00  1.94425E-02

 constraint #      axial        shear         time  failure                                       length  rslt moment      torsion
          1  2.18119E+01  2.01422E+00  4.99494E+00  0.00+00    spotweld beam  ID    1000000  9.41971E+00  2.21772E+00  1.55876E-02

 constraint #      axial        shear         time  failure                                       length  rslt moment      torsion
          1  2.18668E+01  2.01369E+00  4.99989E+00  0.00+00    spotweld beam  ID    1000000  9.41974E+00  1.90923E+00 -8.96135E-04
