$# LS-DYNA Keyword file created by LS-PrePost(R) V4.10.5-23Jun2023
$# Created on Aug-8-2024 (14:38:22)
*KEYWORD
*TITLE
$#                                                                         title
LS-DYNA keyword deck by LS-PrePost
*CONTROL_TERMINATION
$#  endtim    endcyc     dtmin    endeng    endmas     nosol
      40.0         0       0.0       0.01.000000E8         0
*DATABASE_ABSTAT
$#      dt    binary      lcur     ioopt
       0.5         0         0         1
*DATABASE_BINARY_D3PLOT
$#      dt      lcdt      beam     npltc    psetid
       0.5         0         0         0         0
*MAT_FABRIC_TITLE
Airbag
$#     mid        ro        ea        eb         -      prba      prab         -
         17.86000E-7       0.3       0.2                 0.2       0.2          
$#     gab         -         -       cse        el       prl    lratio      damp
      0.04                           1.0      0.06      0.35       0.1       0.2
$#    aopt       flc       fac       ela      lnrc      form     fvopt    tsrfac
       0.0       0.0       0.0       0.0       0.0         0         0       0.0
$#  unused    rgbrth     a0ref        a1        a2        a3        x0        x1
                 0.0         0       0.0       0.0       0.0       0.0       0.0
$#      v1        v2        v3         -         -         -      beta    isrefg
       0.0       0.0       0.0                                     0.0         0
*MAT_RIGID_TITLE
Gas Nozzle
$#     mid        ro         e        pr         n    couple         m     alias
         27.80000E-6     200.0       0.3       0.0       0.0       0.0          
$#     cmo      con1      con2
       1.0         7         7
$#lco or a1        a2        a3        v1        v2        v3
       0.0       0.0       0.0       0.0       0.0       0.0
*PART
$#                                                                         title

$#     pid     secid       mid     eosid      hgid      grav    adpopt      tmid
         1         0         0         0         0         0         0         0
*DEFINE_CURVE_TITLE
Mass Flow Rate
$#    lcid      sidr       sfa       sfo      offa      offo    dattyp     lcint
         1         0       1.0       1.0       0.0       0.0         0         0
$#                a1                  o1
                 0.0                 0.0
                30.0                0.01
                40.0                 0.0
*AIRBAG_SIMPLE_AIRBAG_MODEL
$#     sid    sidtyp      rbid      vsca      psca      vini       mwd      spsf
         1         1         0       1.0       1.0       0.0       0.0       0.0
$#      cv        cp         t      lcid        mu      area        pe        ro
   196.168     274.6     800.0         1       0.7       0.01.01300E-41.22500E-9
$#     lou      text         a         b        mw      gasc
         0       0.0       0.0       0.0       0.0       0.0
*CONSTRAINED_ADAPTIVITY
$#    dnid      nid1      nid2
     18557      7866     16035
     18561      7866      7867
     18564      7862      8017
     18568      7862      7865
     18571      8013     16184
     18575      8013      8016
     18578      7864      7867
     18581      7864      7865
     18583      8015      8017
     18586      8015      8016
     18589       562      4617
     18592       562      7927
     18596      2093      4517
     18599      2093      7927
     18602       539     12685
     18605       539      4517
     18610       581      8070
     18614      2154      4617
     18616      2154      8070
     18620     16030     16185
$ ... 12 like lines cut
*ELEMENT_SHELL
$#   eid     pid      n1      n2      n3      n4      n5      n6      n7      n8
       1       1       1    2193    2197    2196       0       0       0       0
       2       1       1    2196    2201    2200       0       0       0       0
       3       1       2    2202    2206    2205       0       0       0       0
       4       1       3    2207    2211    2210       0       0       0       0
       5       1       4    2212    2216    2215       0       0       0       0
       6       1       5    2217    2221    2220       0       0       0       0
       7       1       6    2222    2226    2225       0       0       0       0
       8       1       7    2227    2231    2230       0       0       0       0
       9       1       8    2232    2236    2235       0       0       0       0
      10       1       8    2235    2240    2239       0       0       0       0
      11       1       9    2241    2245    2244       0       0       0       0
      12       1      10    2246    2250    2249       0       0       0       0
      13       1      11    2251    2255    2254       0       0       0       0
      14       1      12    2256    2260    2259       0       0       0       0
      15       1      13    2261    2265    2264       0       0       0       0
      16       1      14    2266    2270    2269       0       0       0       0
      17       1      15    2271    2275    2274       0       0       0       0
      18       1      16    2276    2280    2279       0       0       0       0
      19       1      17    2281    2285    2284       0       0       0       0
      20       1      18    2286    2290    2289       0       0       0       0
$ ... 17420 like lines cut
*NODE
$#   nid               x               y               z      tc      rc
       1       -99.40902        -10.6538             2.0       0       0
       2       -99.72701       -7.132489             2.0       0       0
       3       -99.92497        -3.58167             2.0       0       0
       4          -100.0   -3.430249e-13             2.0       0       0
       5       -99.92497        3.581677             2.0       0       0
       6       -99.72701        7.132497             2.0       0       0
       7       -99.40901        10.65381             2.0       0       0
       8       -95.86484       -28.42721             2.0       0       0
       9       -96.79729       -25.08756             2.0       0       0
      10       -97.60288        -21.6945             2.0       0       0
      11       -98.30692       -18.21116             2.0       0       0
      12       -98.89878       -14.65085             2.0       0       0
      13       -97.38432       -11.21783             0.0       0       0
      14           -97.2       -7.199997             0.0       0       0
      15           -97.2       -3.599998             0.0       0       0
      16           -97.2             0.0             0.0       0       0
      17           -97.2        3.600006             0.0       0       0
      18           -97.2        7.200005             0.0       0       0
      19       -97.38432        11.21784             0.0       0       0
      20       -98.89878        14.65086             2.0       0       0
$ ... 17436 like lines cut
*SECTION_SHELL_TITLE
Shell
$#   secid    elform      shrf       nip     propt   qr/irid     icomp     setyp
         1         5       1.0         4       1.0         0         0         1
$#      t1        t2        t3        t4      nloc     marea      idof    edgset
       0.4       0.4       0.4       0.4       0.0       0.0       0.0         0
*SET_PART_LIST_TITLE
Airbag
$#     sid       da1       da2       da3       da4    solver
         1       0.0       0.0       0.0       0.0MECH
$#    pid1      pid2      pid3      pid4      pid5      pid6      pid7      pid8
         1         0         0         0         0         0         0         0
*END
