$# LS-DYNA Keyword file created by LS-PrePost(R) V4.10.5-23Jun2023
$# Created on Jul-16-2024 (10:47:14)
*KEYWORD
*TITLE
$#                                                                         title
LS-DYNA keyword deck by LS-PrePost
*CONTROL_ALE
        -1         1         2      -1.0       0.0       0.0       0.0       0.0
       0.0       0.0       0.0       0.0         0         0       0.0         0
         1        50         0       0.0       0.0         0       0.0       0.0
         0         0         01.00000E-5
*CONTROL_ENERGY
         2         2         1         1         2         1         1         1
*CONTROL_TERMINATION
     0.015         0       0.0       0.0       0.0         0
*CONTROL_TIMESTEP
1.00000E-8       0.7         0       0.0       0.0         0         0         0
       0.0         0         0                           0.0       0.0         0
*DATABASE_BINARY_D3PLOT
1.00000E-4         0         0         0         0
         0       0.0       0.0       0.0         0         0
*BOUNDARY_SPC_SET
         1         0         1         1         0         0         0         0
*SET_NODE_LIST_TITLE
inflow
         1       0.0       0.0       0.0       0.0MECH      2                   
      3542      2912      2913      2914      2915      2916      2917      2918
      2919      2920      2921      2922      2923      2924      2925      2926
      2927      2928      2929      2930      2931      2932      2933      2934
      2935      2936      2937      2938      2939      2940      2941      2942
      2943      2944      2945      2946      2947      2948      2949      2950
      2951      2952      2953      2954      2955      2956      2957      2958
      2959      2960      2961      2962      2963      2964      2965      2966
      2967      2968      2969      2970      2971      2972      2973      2974
      2975      2976      2977      2978      2979      2980      2981      2982
      2983      2984      2985      2986      2987      2988      2989      2990
      2991      2992      2993      2994      2995      2996      2997      2998
      2999      3000      3001      3002      3003      3004      3005      3006
      3007      3008      3009      3010      3011      3012      3013      3014
      3015      3016      3017      3018      3019      3020      3021      3022
      3023      3024      3025      3026      3027      3028      3029      3030
      3031      3032      3033      3034      3035      3036      3037      3038
      3039      3040      3041      3042      3043      3044      3045      3046
      3047      3048      3049      3050      3051      3052      3053      3054
      3055      3056      3057      3058      3059      3060      3061      3062
      3063      3064      3065      3066      3067      3068      3069      3070
$ ... 67 like lines cut
*BOUNDARY_SPC_SET
         2         0         1         0         1         0         0         0
*SET_NODE_LIST_TITLE
outflow
         2       0.0       0.0       0.0       0.0MECH      1                   
      3608      3609      3610      3611      3612      3613      3614      3615
      3616      3617      3618      3619      3620      3621      3622      3623
      3624      3625      3626      3627      3628      3629      3630      3631
      3632      3633      3634      3635      3636      3637      3638      3639
      3640      3641      3642      3643      3644      3645      3646      3647
      3648      3649      3650      3651      3652      3653      3654      3655
      3656      3657      3658      3659      3660      3661      3662      3663
      3664      3665      3666      3667      3668      3669      3670      3671
      3672      3673      3674      3675      3676      3677      3678      3679
      3680      3681      3682      3683      3684      3685      3686      3687
      3688      3689      3690      3691      3692      3693      3694      3695
      3696      3697      3698      3699      3700      3701      3702      3703
      3704      3705      3706      3707      3708      3709      3710      3711
      3712      3713      3714      3715      3716      3717      3718      3719
      3720      3721      3722      3723      3724      3725      3726      3727
      3728      3729      3730      3731      3732      3733      3734      3735
      3736      3737      3738      3739      3740      3741      3742      3743
      3744      3745      3746      3747      3748      3749      3750      3751
      3752      3753      3754      3755      3756      3757      3758      3759
      3760      3761      3762      3763      3764      3765      3766      3767
$ ... 67 like lines cut
*LOAD_SEGMENT_SET_ID
         1                                                                      
         5         2      1.23       0.0
*LOAD_SEGMENT_SET_ID
         1                                                                      
         6         2      1.23       0.0
*LOAD_SEGMENT_SET_ID
         1                                                                      
         7         2      1.23       0.0
*LOAD_SEGMENT_SET_ID
         1                                                                      
         8         2      1.23       0.0
*LOAD_SEGMENT_SET_ID
         1                                                                      
         9         2      1.23       0.0
*LOAD_SEGMENT_SET_ID
         1                                                                      
        10         2      1.23       0.0
*LOAD_SEGMENT_SET_ID
         1                                                                      
        11         2      1.23       0.0
*LOAD_SEGMENT_SET_ID
         1                                                                      
        12         2      1.23       0.0
*LOAD_SEGMENT_SET_ID
         1                                                                      
        13         2      1.23       0.0
*LOAD_SEGMENT_SET_ID
         1                                                                      
        14         2      1.23       0.0
*LOAD_SEGMENT_SET_ID
         1                                                                      
        15         2      1.23       0.0
*LOAD_SEGMENT_SET_ID
         1                                                                      
        16         2      1.23       0.0
*LOAD_SEGMENT_SET_ID
         1                                                                      
        17         2      1.23       0.0
*LOAD_SEGMENT_SET_ID
         1                                                                      
        18         2      1.23       0.0
*LOAD_SEGMENT_SET_ID
         1                                                                      
        19         2      1.23       0.0
*LOAD_SEGMENT_SET_ID
         1                                                                      
        20         2      1.23       0.0
*LOAD_SEGMENT_SET_ID
         1                                                                      
        21         2      1.23       0.0
*LOAD_SEGMENT_SET_ID
         1                                                                      
        22         2      1.23       0.0
*LOAD_SEGMENT_SET_ID
         1                                                                      
        23         2      1.23       0.0
*LOAD_SEGMENT_SET_ID
         1                                                                      
        24         2      1.23       0.0
*LOAD_SEGMENT_SET_ID
         1                                                                      
         1         2   1.58032       0.0
*LOAD_SEGMENT_SET_ID
         1                                                                      
         2         2   1.58032       0.0
*HOURGLASS
         1         1      0.01         0       0.0       0.0       0.0       0.0
*MAT_RIGID_TITLE
floor  material
         1    7800.0  200000.0      0.01       0.0       0.0       0.0          
       0.0         0         0
       0.0       0.0       0.0       0.0       0.0       0.0
*MAT_NULL
         2      1.28-1.00000E8       0.0       0.0       0.0       0.0       0.0
*MAT_NULL
         4      1.28-1.00000E8       0.0       0.0       0.0       0.0       0.0
*MAT_FABRIC_TITLE
parachute fabric
         5   1439.351.50000E11       0.0                 0.3       0.0          
       0.0                           0.0       0.0       0.0       0.0      0.05
       0.0       0.0       0.0       0.0       0.0        12         0       0.0
                 0.0         0       0.0       0.0       0.0       0.0       0.0
       0.0       0.0       0.0                                     0.0         0
*PART
floor
         2         1         1         0         0         0         0         0
*SECTION_SOLID
         1         1         0                                     0.0       0.0
*PART
inlet
         3         2         2         1         1         0         0         0
*SECTION_SOLID
         2        11         4                                     0.0       0.0
*EOS_LINEAR_POLYNOMIAL
         1       0.0       0.0       0.0       0.0       1.4       1.4       0.0
  321200.0     100.0
*PART
outlet
         4         3         2         2         1         0         0         0
*SECTION_SOLID
         3        11         3                                     0.0       0.0
*EOS_LINEAR_POLYNOMIAL
         2       0.0       0.0       0.0       0.0       1.4       1.4       0.0
  321200.0     100.0
*PART
flow
         5         2         4         3         1         0         0         0
*EOS_LINEAR_POLYNOMIAL
         3       0.0       0.0       0.0       0.0       1.4       1.4       0.0
  307500.0    1000.0
*PART
Parachute 2
         6         5         5         0         0         0         0         0
*SECTION_SHELL
         5        16       1.0         2       1.0         0         0         1
       1.0       1.0       1.0       1.0       0.0       0.0       0.0         0
*PART
Parachute 1
         7         5         5         0         0         0         0         0
*DEFINE_CURVE
         2         0       0.0       1.0       0.0       0.0         0         0
                 0.0                 0.0
    5.0000002375e-04                15.0
              0.0015                15.1
*DEFINE_CURVE
        11         0       0.0       0.0       0.0       0.0         0         0
                 0.0                 0.0
               0.001             1000000
*ALE_MULTI-MATERIAL_GROUP
         5         1
         4         1
         3         1
*CONSTRAINED_LAGRANGE_IN_SOLID
         1         5         0         1         2         4         1        -1
       0.01.00000E10       0.3       0.0       0.1         0         0       0.0
       0.0       0.0       0.0         2       0.2         0         0         0
         0         0         0         0       0.0         0       0.0
       0.0       0.0       0.0       0.0       0.0       0.0         0       0.0
*ELEMENT_SOLID
    1517       2    1581    1582    1593    1592    1702    1703    1714    1713
    1518       2    1582    1583    1594    1593    1703    1704    1715    1714
    1519       2    1583    1584    1595    1594    1704    1705    1716    1715
    1520       2    1584    1585    1596    1595    1705    1706    1717    1716
    1521       2    1585    1586    1597    1596    1706    1707    1718    1717
    1522       2    1586    1587    1598    1597    1707    1708    1719    1718
    1523       2    1587    1588    1599    1598    1708    1709    1720    1719
    1524       2    1588    1589    1600    1599    1709    1710    1721    1720
    1525       2    1589    1590    1601    1600    1710    1711    1722    1721
    1526       2    1590    1591    1602    1601    1711    1712    1723    1722
    1527       2    1592    1593    1604    1603    1713    1714    1725    1724
    1528       2    1593    1594    1605    1604    1714    1715    1726    1725
    1529       2    1594    1595    1606    1605    1715    1716    1727    1726
    1530       2    1595    1596    1607    1606    1716    1717    1728    1727
    1531       2    1596    1597    1608    1607    1717    1718    1729    1728
    1532       2    1597    1598    1609    1608    1718    1719    1730    1729
    1533       2    1598    1599    1610    1609    1719    1720    1731    1730
    1534       2    1599    1600    1611    1610    1720    1721    1732    1731
    1535       2    1600    1601    1612    1611    1721    1722    1733    1732
    1536       2    1601    1602    1613    1612    1722    1723    1734    1733
$ ... 2555 like lines cut
*ELEMENT_SHELL
       1       6    6567    6579    6580    6580       0       0       0       0
       2       6    6567    6580    6581    6568       0       0       0       0
       3       6    6568    6581    6582    6569       0       0       0       0
       4       6    6569    6582    6583    6570       0       0       0       0
       5       6    6570    6583    6584    6571       0       0       0       0
       6       6    6571    6584    6585    6572       0       0       0       0
       7       6    6572    6585    6586    6573       0       0       0       0
       8       6    6573    6586    6587    6574       0       0       0       0
       9       6    6574    6587    6588    6575       0       0       0       0
      10       6    6575    6588    6589    6589       0       0       0       0
      11       6    6576    6594    6595    6595       0       0       0       0
      12       6    6576    6595    6596    6577       0       0       0       0
      13       6    6577    6596    6597    6578       0       0       0       0
      14       6    6578    6597    6598    6579       0       0       0       0
      15       6    6579    6598    6599    6580       0       0       0       0
      16       6    6580    6599    6600    6581       0       0       0       0
      17       6    6581    6600    6601    6582       0       0       0       0
      18       6    6582    6601    6602    6583       0       0       0       0
      19       6    6583    6602    6603    6584       0       0       0       0
      20       6    6584    6603    6604    6585       0       0       0       0
$ ... 3480 like lines cut
*NODE
    1581          -100.0          -100.0            -4.0       0       0
    1582           -80.0          -100.0            -4.0       0       0
    1583           -60.0          -100.0            -4.0       0       0
    1584           -40.0          -100.0            -4.0       0       0
    1585           -20.0          -100.0            -4.0       0       0
    1586             0.0          -100.0            -4.0       0       0
    1587            20.0          -100.0            -4.0       0       0
    1588            40.0          -100.0            -4.0       0       0
    1589            60.0          -100.0            -4.0       0       0
    1590            80.0          -100.0            -4.0       0       0
    1591           100.0          -100.0            -4.0       0       0
    1592          -100.0           -80.0            -4.0       0       0
    1593           -80.0           -80.0            -4.0       0       0
    1594           -60.0           -80.0            -4.0       0       0
    1595           -40.0           -80.0            -4.0       0       0
    1596           -20.0           -80.0            -4.0       0       0
    1597             0.0           -80.0            -4.0       0       0
    1598            20.0           -80.0            -4.0       0       0
    1599            40.0           -80.0            -4.0       0       0
    1600            60.0           -80.0            -4.0       0       0
$ ... 6864 like lines cut
*SET_PART_LIST_TITLE
parachute
         1       0.0       0.0       0.0       0.0MECH
         6         7         0         0         0         0         0         0
*SET_SEGMENT_TITLE
inlet (outer)
         1       0.0       0.0       0.0       0.0MECH               0          
      3517      3511      3510      3516       0.0       0.0       0.0       0.0
      3518      3512      3511      3517       0.0       0.0       0.0       0.0
      3519      3513      3512      3518       0.0       0.0       0.0       0.0
      3520      3514      3513      3519       0.0       0.0       0.0       0.0
      3521      3515      3514      3520       0.0       0.0       0.0       0.0
      3516      3510      3604      3594       0.0       0.0       0.0       0.0
      3547      3541      3515      3521       0.0       0.0       0.0       0.0
      3548      3542      3541      3547       0.0       0.0       0.0       0.0
      3549      3543      3542      3548       0.0       0.0       0.0       0.0
      3550      3544      3543      3549       0.0       0.0       0.0       0.0
      3551      3545      3544      3550       0.0       0.0       0.0       0.0
      3580      3574      3545      3551       0.0       0.0       0.0       0.0
      3576      3570      3571      3577       0.0       0.0       0.0       0.0
      3577      3571      3572      3578       0.0       0.0       0.0       0.0
      3578      3572      3573      3579       0.0       0.0       0.0       0.0
      3579      3573      3574      3580       0.0       0.0       0.0       0.0
      3607      3601      3570      3576       0.0       0.0       0.0       0.0
      3594      3604      3603      3586       0.0       0.0       0.0       0.0
      3586      3603      3602      3605       0.0       0.0       0.0       0.0
      3605      3602      3601      3607       0.0       0.0       0.0       0.0
*SET_SEGMENT_TITLE
inlet (inner)
         2       0.0       0.0       0.0       0.0MECH               0          
      3499      3493      3492      3498       0.0       0.0       0.0       0.0
      3493      3599      3534      3492       0.0       0.0       0.0       0.0
      3500      3494      3493      3499       0.0       0.0       0.0       0.0
      3494      3528      3599      3493       0.0       0.0       0.0       0.0
      3501      3495      3494      3500       0.0       0.0       0.0       0.0
      3495      3593      3528      3494       0.0       0.0       0.0       0.0
      3502      3496      3495      3501       0.0       0.0       0.0       0.0
      3496      3587      3593      3495       0.0       0.0       0.0       0.0
      3503      3497      3496      3502       0.0       0.0       0.0       0.0
      3497      3522      3587      3496       0.0       0.0       0.0       0.0
      3498      3492      3534      3592       0.0       0.0       0.0       0.0
      3505      3499      3498      3504       0.0       0.0       0.0       0.0
      3506      3500      3499      3505       0.0       0.0       0.0       0.0
      3507      3501      3500      3506       0.0       0.0       0.0       0.0
      3508      3502      3501      3507       0.0       0.0       0.0       0.0
      3529      3522      3497      3503       0.0       0.0       0.0       0.0
      3509      3503      3502      3508       0.0       0.0       0.0       0.0
      3504      3498      3592      3598       0.0       0.0       0.0       0.0
      3511      3505      3504      3510       0.0       0.0       0.0       0.0
      3512      3506      3505      3511       0.0       0.0       0.0       0.0
$ ... 65 like lines cut
*SET_SEGMENT_TITLE
flow (1)
         5       0.0       0.0       0.0       0.0MECH               0          
      6243      6244      6360      6359       0.0       0.0       0.0       0.0
      6011      6012      6128      6127       0.0       0.0       0.0       0.0
      6359      6360      6476      6475       0.0       0.0       0.0       0.0
      6127      6128      6244      6243       0.0       0.0       0.0       0.0
      5895      5896      6012      6011       0.0       0.0       0.0       0.0
*SET_SEGMENT_TITLE
flow (2)
         6       0.0       0.0       0.0       0.0MECH               0          
      6244      6245      6361      6360       0.0       0.0       0.0       0.0
      6012      6013      6129      6128       0.0       0.0       0.0       0.0
      6360      6361      6477      6476       0.0       0.0       0.0       0.0
      6128      6129      6245      6244       0.0       0.0       0.0       0.0
      5896      5897      6013      6012       0.0       0.0       0.0       0.0
*SET_SEGMENT_TITLE
flow (3)
         7       0.0       0.0       0.0       0.0MECH               0          
      6245      6246      6362      6361       0.0       0.0       0.0       0.0
      6013      6014      6130      6129       0.0       0.0       0.0       0.0
      6361      6362      6478      6477       0.0       0.0       0.0       0.0
      6129      6130      6246      6245       0.0       0.0       0.0       0.0
      5897      5898      6014      6013       0.0       0.0       0.0       0.0
*SET_SEGMENT_TITLE
flow (4)
         8       0.0       0.0       0.0       0.0MECH               0          
      6246      6247      6363      6362       0.0       0.0       0.0       0.0
      6014      6015      6131      6130       0.0       0.0       0.0       0.0
      6362      6363      6479      6478       0.0       0.0       0.0       0.0
      6130      6131      6247      6246       0.0       0.0       0.0       0.0
      5898      5899      6015      6014       0.0       0.0       0.0       0.0
*SET_SEGMENT_TITLE
flow (5)
         9       0.0       0.0       0.0       0.0MECH               0          
      6247      6248      6364      6363       0.0       0.0       0.0       0.0
      6015      6016      6132      6131       0.0       0.0       0.0       0.0
      6363      6364      6480      6479       0.0       0.0       0.0       0.0
      6131      6132      6248      6247       0.0       0.0       0.0       0.0
      5899      5900      6016      6015       0.0       0.0       0.0       0.0
*SET_SEGMENT_TITLE
flow (6)
        10       0.0       0.0       0.0       0.0MECH               0          
      6248      6274      6390      6364       0.0       0.0       0.0       0.0
      6016      6042      6158      6132       0.0       0.0       0.0       0.0
      6364      6390      6506      6480       0.0       0.0       0.0       0.0
      6132      6158      6274      6248       0.0       0.0       0.0       0.0
      5900      5926      6042      6016       0.0       0.0       0.0       0.0
*SET_SEGMENT_TITLE
flow (7)
        11       0.0       0.0       0.0       0.0MECH               0          
      6274      6275      6391      6390       0.0       0.0       0.0       0.0
      6042      6043      6159      6158       0.0       0.0       0.0       0.0
      6390      6391      6507      6506       0.0       0.0       0.0       0.0
      6158      6159      6275      6274       0.0       0.0       0.0       0.0
      5926      5927      6043      6042       0.0       0.0       0.0       0.0
*SET_SEGMENT_TITLE
flow (8)
        12       0.0       0.0       0.0       0.0MECH               0          
      6275      6276      6392      6391       0.0       0.0       0.0       0.0
      6043      6044      6160      6159       0.0       0.0       0.0       0.0
      6391      6392      6508      6507       0.0       0.0       0.0       0.0
      6159      6160      6276      6275       0.0       0.0       0.0       0.0
      5927      5928      6044      6043       0.0       0.0       0.0       0.0
*SET_SEGMENT_TITLE
flow (9)
        13       0.0       0.0       0.0       0.0MECH               0          
      6276      6277      6393      6392       0.0       0.0       0.0       0.0
      6044      6045      6161      6160       0.0       0.0       0.0       0.0
      6392      6393      6509      6508       0.0       0.0       0.0       0.0
      6160      6161      6277      6276       0.0       0.0       0.0       0.0
      5928      5929      6045      6044       0.0       0.0       0.0       0.0
*SET_SEGMENT_TITLE
flow (10)
        14       0.0       0.0       0.0       0.0MECH               0          
      6277      6278      6394      6393       0.0       0.0       0.0       0.0
      6045      6046      6162      6161       0.0       0.0       0.0       0.0
      6393      6394      6510      6509       0.0       0.0       0.0       0.0
      6161      6162      6278      6277       0.0       0.0       0.0       0.0
      5929      5930      6046      6045       0.0       0.0       0.0       0.0
*SET_SEGMENT_TITLE
flow (11)
        15       0.0       0.0       0.0       0.0MECH               0          
      5930      5959      6075      6046       0.0       0.0       0.0       0.0
      6278      6307      6423      6394       0.0       0.0       0.0       0.0
      6046      6075      6191      6162       0.0       0.0       0.0       0.0
      6394      6423      6539      6510       0.0       0.0       0.0       0.0
      6162      6191      6307      6278       0.0       0.0       0.0       0.0
*SET_SEGMENT_TITLE
flow (12)
        16       0.0       0.0       0.0       0.0MECH               0          
      5959      5958      6074      6075       0.0       0.0       0.0       0.0
      6307      6306      6422      6423       0.0       0.0       0.0       0.0
      6075      6074      6190      6191       0.0       0.0       0.0       0.0
      6423      6422      6538      6539       0.0       0.0       0.0       0.0
      6191      6190      6306      6307       0.0       0.0       0.0       0.0
*SET_SEGMENT_TITLE
flow (13)
        17       0.0       0.0       0.0       0.0MECH               0          
      5958      5957      6073      6074       0.0       0.0       0.0       0.0
      6306      6305      6421      6422       0.0       0.0       0.0       0.0
      6074      6073      6189      6190       0.0       0.0       0.0       0.0
      6422      6421      6537      6538       0.0       0.0       0.0       0.0
      6190      6189      6305      6306       0.0       0.0       0.0       0.0
*SET_SEGMENT_TITLE
flow (14)
        18       0.0       0.0       0.0       0.0MECH               0          
      5957      5956      6072      6073       0.0       0.0       0.0       0.0
      6305      6304      6420      6421       0.0       0.0       0.0       0.0
      6073      6072      6188      6189       0.0       0.0       0.0       0.0
      6421      6420      6536      6537       0.0       0.0       0.0       0.0
      6189      6188      6304      6305       0.0       0.0       0.0       0.0
*SET_SEGMENT_TITLE
flow (15)
        19       0.0       0.0       0.0       0.0MECH               0          
      5956      5955      6071      6072       0.0       0.0       0.0       0.0
      6304      6303      6419      6420       0.0       0.0       0.0       0.0
      6072      6071      6187      6188       0.0       0.0       0.0       0.0
      6420      6419      6535      6536       0.0       0.0       0.0       0.0
      6188      6187      6303      6304       0.0       0.0       0.0       0.0
*SET_SEGMENT_TITLE
flow (16)
        20       0.0       0.0       0.0       0.0MECH               0          
      6187      6218      6334      6303       0.0       0.0       0.0       0.0
      5955      5986      6102      6071       0.0       0.0       0.0       0.0
      6303      6334      6450      6419       0.0       0.0       0.0       0.0
      6071      6102      6218      6187       0.0       0.0       0.0       0.0
      6419      6450      6566      6535       0.0       0.0       0.0       0.0
*SET_SEGMENT_TITLE
flow (17)
        21       0.0       0.0       0.0       0.0MECH               0          
      6218      6216      6332      6334       0.0       0.0       0.0       0.0
      5986      5984      6100      6102       0.0       0.0       0.0       0.0
      6334      6332      6448      6450       0.0       0.0       0.0       0.0
      6102      6100      6216      6218       0.0       0.0       0.0       0.0
      6450      6448      6564      6566       0.0       0.0       0.0       0.0
*SET_SEGMENT_TITLE
flow (18)
        22       0.0       0.0       0.0       0.0MECH               0          
      6216      6197      6313      6332       0.0       0.0       0.0       0.0
      5984      5965      6081      6100       0.0       0.0       0.0       0.0
      6332      6313      6429      6448       0.0       0.0       0.0       0.0
      6100      6081      6197      6216       0.0       0.0       0.0       0.0
      6448      6429      6545      6564       0.0       0.0       0.0       0.0
*SET_SEGMENT_TITLE
flow (19)
        23       0.0       0.0       0.0       0.0MECH               0          
      5965      5973      6089      6081       0.0       0.0       0.0       0.0
      6313      6321      6437      6429       0.0       0.0       0.0       0.0
      6081      6089      6205      6197       0.0       0.0       0.0       0.0
      6429      6437      6553      6545       0.0       0.0       0.0       0.0
      6197      6205      6321      6313       0.0       0.0       0.0       0.0
*SET_SEGMENT_TITLE
flow (20)
        24       0.0       0.0       0.0       0.0MECH               0          
      5973      5895      6011      6089       0.0       0.0       0.0       0.0
      6321      6243      6359      6437       0.0       0.0       0.0       0.0
      6089      6011      6127      6205       0.0       0.0       0.0       0.0
      6437      6359      6475      6553       0.0       0.0       0.0       0.0
      6205      6127      6243      6321       0.0       0.0       0.0       0.0
*SET_MULTI-MATERIAL_GROUP_LIST
         1
2         0         0         0         0         0         0         0
*END
