$# LS-DYNA Keyword file created by LS-PrePost(R) V4.10.5-23Jun2023
$# Created on Jul-1-2024 (15:40:12)
*KEYWORD
*TITLE
$#                                                                         title
Airbag
*BOUNDARY_SPC_SET
         3         0         1         0         1         0         0         0
         4         0         1         0         1         0         0         0
*BOUNDARY_SPC_NODE
      6888         0         1         1         1         1         1         1
*LOAD_SEGMENT_SET_ID
         1                                                                      
         1         2      1.23       0.0
*LOAD_SEGMENT_SET_ID
         2                                                                      
         2         2      1.23       0.0
*LOAD_SEGMENT_SET_ID
         3                                                                      
         3         2      1.23       0.0
*LOAD_SEGMENT_SET_ID
         4                                                                      
         4         2      1.23       0.0
*LOAD_SEGMENT_SET_ID
         5                                                                      
         5         2   1.58032       0.0
*LOAD_SEGMENT_SET_ID
         6                                                                      
         6         2      1.23       0.0
*LOAD_SEGMENT_SET_ID
         7                                                                      
         7         2   1.58032       0.0
*LOAD_SEGMENT_SET_ID
         8                                                                      
         8         2      1.23       0.0
*CONTACT_2D_AUTOMATIC_SURFACE_TO_SURFACE_TITLE
         1                                                                      
         1         2       1.0        50       0.3       0.0       0.0          
       0.01.00000E20       1.0       1.0         0         0         0         0
       0.0      10.0         0         0         0       0.0         0         0
       0.0       0.0       0.0
*ALE_MULTI-MATERIAL_GROUP
         2         1
         3         1
         1         1
*CONSTRAINED_LAGRANGE_IN_SOLID
         4         2         1         1         2         4         1        -1
       0.01.00000E10       0.3       0.0       0.1         0         0       0.0
       0.0       0.0       0.0         2       0.2         0         0         0
         0         0         0         0       0.0         0       0.0
*RIGIDWALL_PLANAR_ID
         1Rigid Wall
         0         0         0       0.0       0.01.00000E20       1.0
       0.0      0.15       0.0       0.0       0.2       0.0       0.0       0.0
*INCLUDE
windflow.6
*END
