$# LS-DYNA Keyword file created by LS-PrePost(R) V4.10.5-23Jun2023
$# Created on Jul-17-2024 (14:37:42)
*KEYWORD
*TITLE
$#                                                                         title
LS-DYNA keyword deck by LS-PrePost
*CONTROL_TERMINATION
      40.0         0       0.0       0.01.000000E8         0
*DATABASE_ABSTAT
       0.5         0         0         1
*DATABASE_BINARY_D3PLOT
       0.5         0         0         0         0
*MAT_FABRIC_TITLE
Airbag
         17.86000E-7       0.3       0.2                 0.2       0.2          
      0.04                           1.0      0.06      0.35       0.1       0.2
       0.0       0.0       0.0       0.0       0.0         0         2       0.0
                 0.0         0       0.0       0.0       0.0       0.0       0.0
       0.0       0.0       0.0                                     0.0         0
*MAT_RIGID_TITLE
Gas Nozzle
         27.80000E-6     200.0       0.3       0.0       0.0       0.0          
       1.0         7         7
       0.0       0.0       0.0       0.0       0.0       0.0
*PART

         2         0         0         0         0         0         0         0
*PART

         3         0         0         0         0         0         0         0
*DEFINE_CURVE_TITLE
Mass Flow Rate
         1         0       1.0       1.0       0.0       0.0         0         0
                 0.0                 0.0
                30.0                0.01
                40.0                 0.0
*AIRBAG_SIMPLE_AIRBAG_MODEL
         1         1         0       1.0       1.0       0.0       0.0       0.0
   196.168     274.6     800.0         1       0.7       0.01.01300E-41.22500E-9
         0       0.0       0.0       0.0       0.0       0.0
*ELEMENT_SHELL
     186       2     197     209     210     210       0       0       0       0
     187       2     197     210     211     198       0       0       0       0
     188       2     198     211     212     199       0       0       0       0
     189       2     199     212     213     200       0       0       0       0
     190       2     200     213     214     201       0       0       0       0
     191       2     201     214     215     202       0       0       0       0
     192       2     202     215     216     203       0       0       0       0
     193       2     203     216     217     204       0       0       0       0
     194       2     204     217     218     205       0       0       0       0
     195       2     205     218     219     219       0       0       0       0
     196       2     206     224     225     225       0       0       0       0
     197       2     206     225     226     207       0       0       0       0
     198       2     207     226     227     208       0       0       0       0
     199       2     208     227     228     209       0       0       0       0
     200       2     209     228     229     210       0       0       0       0
     201       2     210     229     230     211       0       0       0       0
     202       2     211     230     231     212       0       0       0       0
     203       2     212     231     232     213       0       0       0       0
     204       2     213     232     233     214       0       0       0       0
     205       2     214     233     234     215       0       0       0       0
$ ... 2068 like lines cut
*NODE
     197       -29.61819       -4.743619             0.0       0       0
     198       -29.78266       -3.577157             0.0       0       0
     199       -29.90211       -2.393841             0.0       0       0
     200       -29.97487       -1.199472             0.0       0       0
     201           -30.0   -1.029075e-13             0.0       0       0
     202       -29.97487        1.199474             0.0       0       0
     203       -29.90211        2.393843             0.0       0       0
     204       -29.78266        3.577159             0.0       0       0
     205       -29.61819        4.743619             0.0       0       0
     206       -28.45422       -9.487651             0.0       0       0
     207       -28.79558       -8.398766             0.0       0       0
     208       -29.10203        -7.27084             0.0       0       0
     209         -29.369       -6.108542             0.0       0       0
     210       -28.86786       -4.956059             0.0       0       0
     211           -28.8            -3.6             0.0       0       0
     212           -28.8            -2.4             0.0       0       0
     213           -28.8       -1.199999             0.0       0       0
     214           -28.8             0.0             0.0       0       0
     215           -28.8        1.200001             0.0       0       0
     216           -28.8        2.400002             0.0       0       0
$ ... 2101 like lines cut
*RIGIDWALL_PLANAR_ID
         1floor
         0         0         0       0.0       0.01.00000E20       1.0
       0.0       0.0      40.0       0.0       0.0     350.0       0.0       0.0
*SECTION_SHELL_TITLE
Shell
         1         5       1.0         4       1.0         0         0         1
       0.4       0.4       0.4       0.4       0.0       0.0       0.0         0
*SET_PART_LIST_TITLE
Airbag
         1       0.0       0.0       0.0       0.0MECH
         2         0         0         0         0         0         0         0
*END
