$# LS-DYNA Keyword file created by LS-PrePost(R) V4.10.5-23Jun2023
$# Created on Aug-14-2024 (12:44:01)
*KEYWORD
*TITLE
$#                                                                         title
LS-DYNA keyword deck by LS-PrePost
*CONTROL_TERMINATION
$#  endtim    endcyc     dtmin    endeng    endmas     nosol
      20.0         0       0.0       0.01.000000E8         0
*CONTROL_TIMESTEP
$#  dtinit    tssfac      isdo    tslimt     dt2ms      lctm     erode     ms1st
1.00000E-7       0.0         0       0.0       0.0         0         0         0
*DATABASE_ABSTAT
$#      dt    binary      lcur     ioopt
       0.5         0         0         1
*DATABASE_BINARY_D3PLOT
$#      dt      lcdt      beam     npltc    psetid
       0.5         0         0         0         0
*LOAD_GRAVITY_PART_SET
$#     pid       dof        lc     accel      lcdr      stga      stgr
         1         3         0      1.62         0         0         0
*CONTACT_AUTOMATIC_ONE_WAY_SURFACE_TO_SURFACE_ID
$#     cid                                                                 title
         1bag to base
$#   surfa     surfb  surfatyp  surfbtyp   saboxid   sbboxid      sapr      sbpr
         1         8         2         3         0         0         0         0
$#      fs        fd        dc        vc       vdc    penchk        bt        dt
       0.0       0.0       0.0       0.0       0.0         0       0.01.00000E20
$#    sfsa      sfsb      sast      sbst     sfsat     sfsbt       fsf       vsf
       1.0       1.0       0.0       0.0       1.0       1.0       1.0       1.0
*SET_PART_LIST_TITLE
airbag
$#     sid       da1       da2       da3       da4    solver
         1       0.0       0.0       0.0       0.0MECH
$#    pid1      pid2      pid3      pid4      pid5      pid6      pid7      pid8
         1         2         6         0         0         0         0         0
*CONTACT_AUTOMATIC_ONE_WAY_SURFACE_TO_SURFACE_ID
$#     cid                                                                 title
         2bag to anchor
$#   surfa     surfb  surfatyp  surfbtyp   saboxid   sbboxid      sapr      sbpr
         1         1         2         0         0         0         0         0
$#      fs        fd        dc        vc       vdc    penchk        bt        dt
       0.0       0.0       0.0       0.0       0.0         0       0.01.00000E20
$#    sfsa      sfsb      sast      sbst     sfsat     sfsbt       fsf       vsf
       1.0       1.0       0.0       0.0       1.0       1.0       1.0       1.0
*SET_SEGMENT
$#     sid       da1       da2       da3       da4    solver       its         -
         1       0.0       0.0       0.0       0.0MECH               0          
$#      n1        n2        n3        n4        a1        a2        a3        a4
     25090     25103     25104     25091       0.0       0.0       0.0       0.0
     24835     24848     24849     24836       0.0       0.0       0.0       0.0
     25091     25104     25105     25092       0.0       0.0       0.0       0.0
     24836     24849     24850     24837       0.0       0.0       0.0       0.0
     25092     25105     25106     25093       0.0       0.0       0.0       0.0
     24837     24850     24851     24838       0.0       0.0       0.0       0.0
     25093     25106     25107     25094       0.0       0.0       0.0       0.0
     24838     24851     24852     24839       0.0       0.0       0.0       0.0
     25094     25107     25108     25095       0.0       0.0       0.0       0.0
     24839     24852     24853     24840       0.0       0.0       0.0       0.0
     25095     25108     25109     25096       0.0       0.0       0.0       0.0
     24840     24853     24854     24841       0.0       0.0       0.0       0.0
     24842     24857     24858     24843       0.0       0.0       0.0       0.0
     24843     24858     24859     24844       0.0       0.0       0.0       0.0
     25099     25110     25111     25100       0.0       0.0       0.0       0.0
     24844     24859     24860     24845       0.0       0.0       0.0       0.0
     25100     25111     25112     25101       0.0       0.0       0.0       0.0
     24845     24860     24861     24846       0.0       0.0       0.0       0.0
     24820     24830     24831     24831       0.0       0.0       0.0       0.0
     25101     25112     25113     25102       0.0       0.0       0.0       0.0
$ ... 276 like lines cut
*MAT_FABRIC_TITLE
Airbag
$#     mid        ro        ea        eb         -      prba      prab         -
         1    1440.01.50000E111.00000E11                 0.2       0.2          
$#     gab         -         -       cse        el       prl    lratio      damp
      0.04                           1.03.000000E9      0.35       0.1       0.2
$#    aopt       flc       fac       ela      lnrc      form     fvopt    tsrfac
       0.0       0.0       0.0       0.0       0.0         0         2       0.0
$#  unused    rgbrth     a0ref        a1        a2        a3        x0        x1
                 0.0         1       0.0       0.0       0.0       0.0       0.0
$#      v1        v2        v3         -         -         -      beta    isrefg
       0.0       0.0       0.0                                     0.0         0
*MAT_RIGID_TITLE
gas nozzle
$#     mid        ro         e        pr         n    couple         m     alias
         2    2400.03.000000E9       0.3       0.0       0.0       0.0          
$#     cmo      con1      con2
       1.0         7         7
$#lco or a1        a2        a3        v1        v2        v3
       0.0       0.0       0.0       0.0       0.0       0.0
*MAT_FABRIC_TITLE
Porous fabric
$#     mid        ro        ea        eb         -      prba      prab         -
         4    1440.01.00000E118.00000E10                 0.2       0.2          
$#     gab         -         -       cse        el       prl    lratio      damp
      0.04                           1.03.000000E9      0.35       0.1       0.2
$#    aopt       flc       fac       ela      lnrc      form     fvopt    tsrfac
       0.0       0.0       0.0       0.0       0.0         0         1       0.0
$#  unused    rgbrth     a0ref        a1        a2        a3        x0        x1
                 0.0         1       0.0       0.0       0.0       0.0       0.0
$#      v1        v2        v3         -         -         -      beta    isrefg
       0.0       0.0       0.0                                     0.0         0
*MAT_RIGID_TITLE
anchor
$#     mid        ro         e        pr         n    couple         m     alias
         5    2400.03.000000E9       0.3       0.0       0.0       0.0          
$#     cmo      con1      con2
       1.0         7         7
$#lco or a1        a2        a3        v1        v2        v3
       0.0       0.0       0.0       0.0       0.0       0.0
*PART
$#                                                                         title
fabric (bottom)
$#     pid     secid       mid     eosid      hgid      grav    adpopt      tmid
         1         1         1         0         0         0         0         0
*SECTION_SHELL_TITLE
Shell
$#   secid    elform      shrf       nip     propt   qr/irid     icomp     setyp
         1         5       1.0         1       1.0         0         0         1
$#      t1        t2        t3        t4      nloc     marea      idof    edgset
      0.25      0.25      0.25      0.25       0.0       0.0       0.0         0
*PART
$#                                                                         title
null
$#     pid     secid       mid     eosid      hgid      grav    adpopt      tmid
         2         1         4         0         0         0         0         0
*PART
$#                                                                         title
gas nozzle
$#     pid     secid       mid     eosid      hgid      grav    adpopt      tmid
         3         1         2         0         0         0         0         0
*PART
$#                                                                         title
fabric (top)
$#     pid     secid       mid     eosid      hgid      grav    adpopt      tmid
         6         1         1         0         0         0         0         0
*PART
$#                                                                         title
base
$#     pid     secid       mid     eosid      hgid      grav    adpopt      tmid
         8         1         2         0         0         0         0         0
*PART
$#                                                                         title
head / nut
$#     pid     secid       mid     eosid      hgid      grav    adpopt      tmid
         9         2         5         0         0         0         0         0
*SECTION_SHELL_TITLE
anchor
$#   secid    elform      shrf       nip     propt   qr/irid     icomp     setyp
         2         5       1.0         1       1.0         0         0         1
$#      t1        t2        t3        t4      nloc     marea      idof    edgset
      0.25      0.25      0.25      0.25       0.0       0.0       0.0         0
*PART
$#                                                                         title
bolt
$#     pid     secid       mid     eosid      hgid      grav    adpopt      tmid
        10         3         5         0         0         0         0         0
*SECTION_BEAM_TITLE
anchor (beam)
$#   secid    elform      shrf   qr/irid       cst     scoor       nsm     naupd
         3         1       1.0         2         1       0.0       0.0         0
$#     ts1       ts2       tt1       tt2     nsloc     ntloc
      0.14      0.14       0.0       0.0       0.0       0.0
*DEFINE_CURVE_TITLE
Mass Flow Rate
$#    lcid      sidr       sfa       sfo      offa      offo    dattyp     lcint
         1         0       1.0       1.0       0.0       0.0         0         0
$#                a1                  o1
                 0.0                 0.0
                10.0               650.0
                15.0                 0.0
*AIRBAG_WANG_NEFSKE_ID
$#      id                                                                 title
         1                                                                      
$#     sid    sidtyp      rbid      vsca      psca      vini       mwd      spsf
         1         1         0       1.0       1.0       0.0       0.0       0.0
$#      cv        cp         t       lct      lcmt      tvol      lcdt      iabt
     896.0    1204.0    3600.0         0         1       0.0         0     260.0
$#     c23     lcc23       a23     lca23      cp23    lccp23      ap23    lcap23
       0.0         0       0.0         0       0.0         0    1500.0         0
$#      pe        ro        gc     lcefr     pover      ppop       opt     knkdn
3.0000E-103.9000E-15       0.0         0       0.0       0.0         1         0
$#     ioc       ioa      ivol       iro        it      lcbf
       0.0       0.0       0.0       0.0       0.0         0
*ELEMENT_SHELL
$#   eid     pid      n1      n2      n3      n4      n5      n6      n7      n8
       1       6       1      13      14      14       0       0       0       0
       2       1       1      14      15       2       0       0       0       0
       3       1       2      15      16       3       0       0       0       0
       4       1       3      16      17       4       0       0       0       0
       5       1       4      17      18       5       0       0       0       0
       6       1       5      18      19       6       0       0       0       0
       7       1       6      19      20       7       0       0       0       0
       8       1       7      20      21       8       0       0       0       0
       9       1       8      21      22       9       0       0       0       0
      10       1       9      22      23      23       0       0       0       0
      11       6      10      28      29      29       0       0       0       0
      12       1      10      29      30      11       0       0       0       0
      13       1      11      30      31      12       0       0       0       0
      14       1      12      31      32      13       0       0       0       0
      15       1      13      32      33      14       0       0       0       0
      16       1      14      33      34      15       0       0       0       0
      17       1      15      34      35      16       0       0       0       0
      18       1      16      35      36      17       0       0       0       0
      19       1      17      36      37      18       0       0       0       0
      20       1      18      37      38      19       0       0       0       0
$ ... 8071 like lines cut
*ELEMENT_BEAM
$#   eid     pid      n1      n2      n3     rt1     rr1     rt2     rr2   local
   16763      10   25135   25134       0       0       0       0       0       2
*NODE
$#   nid               x               y               z      tc      rc
       1       -29.61819       -4.743619             0.5       0       0
       2       -29.78266       -3.577157             0.5       0       0
       3       -29.90211       -2.393841             0.5       0       0
       4       -29.97487       -1.199472             0.5       0       0
       5           -30.0   -1.029075e-13             0.5       0       0
       6       -29.97487        1.199474             0.5       0       0
       7       -29.90211        2.393843             0.5       0       0
       8       -29.78266        3.577159             0.5       0       0
       9       -29.61819        4.743619             0.5       0       0
      10       -28.45422       -9.487651             0.5       0       0
      11       -28.79558       -8.398766             0.5       0       0
      12       -29.10203        -7.27084             0.5       0       0
      13         -29.369       -6.108542             0.5       0       0
      14       -28.86786       -4.956059             0.0       0       0
      15           -28.8            -3.6             0.0       0       0
      16           -28.8            -2.4             0.0       0       0
      17           -28.8       -1.199999             0.0       0       0
      18           -28.8             0.0             0.0       0       0
      19           -28.8        1.200001             0.0       0       0
      20           -28.8        2.400002             0.0       0       0
$ ... 8301 like lines cut
*END
