 LS-DYNA keyword deck by LS-PrePost                                      
                    ls-dyna smp d R13 R13.1.1_27_8731a0 date 07/28/2023

{BEGIN LEGEND}
 Entity #        Title
        1                                                                          
{END LEGEND}



      time   airbag/cv #  volume        pressure    internal energy      dm/dt in      density dm/dt out  total mass gas temp. surface area   reaction dm/dt outp dm/dt outv
 1.51897E-05       1     2.7272E+03     4.0971E-06     3.2504E-02     4.9366E-04     2.7534E-12  0.000E+00  7.509E-09  4.831E+03  5.616E+03  0.000E+00  0.000E+00  0.000E+00
    Material I.D.=           1  Unblocked  Area=  0.4282E+04    Blocked  Area=  0.0000E+00    Leakage      =  0.0000E+00
    Material I.D.=           1  Unblocked  Area=  0.4282E+04    Blocked  Area=  0.0000E+00    Leakage      =  0.0000E+00


      time   airbag/cv #  volume        pressure    internal energy      dm/dt in      density dm/dt out  total mass gas temp. surface area   reaction dm/dt outp dm/dt outv
 4.99999E-01       1     3.1461E+03     1.8641E+03     1.7060E+07     1.6250E+01     1.2913E-03  0.000E+00  4.063E+00  4.687E+03  5.616E+03  0.000E+00  0.000E+00  0.000E+00
    Material I.D.=           1  Unblocked  Area=  0.4282E+04    Blocked  Area=  0.0000E+00    Leakage      =  0.0000E+00
    Material I.D.=           1  Unblocked  Area=  0.4282E+04    Blocked  Area=  0.0000E+00    Leakage      =  0.0000E+00


      time   airbag/cv #  volume        pressure    internal energy      dm/dt in      density dm/dt out  total mass gas temp. surface area   reaction dm/dt outp dm/dt outv
 9.99997E-01       1     3.9953E+03     5.7376E+03     6.6687E+07     3.2500E+01     4.0673E-03  0.000E+00  1.625E+01  4.580E+03  5.612E+03  0.000E+00  0.000E+00  0.000E+00
    Material I.D.=           1  Unblocked  Area=  0.4279E+04    Blocked  Area=  0.0000E+00    Leakage      =  0.0000E+00
    Material I.D.=           1  Unblocked  Area=  0.4279E+04    Blocked  Area=  0.0000E+00    Leakage      =  0.0000E+00


      time   airbag/cv #  volume        pressure    internal energy      dm/dt in      density dm/dt out  total mass gas temp. surface area   reaction dm/dt outp dm/dt outv
 1.50000E+00       1     8.7068E+03     5.1237E+03     1.2978E+08     4.8750E+01     4.1993E-03  0.000E+00  3.656E+01  3.961E+03  5.663E+03  0.000E+00  0.000E+00  0.000E+00
    Material I.D.=           1  Unblocked  Area=  0.4275E+04    Blocked  Area=  0.0000E+00    Leakage      =  0.0000E+00
    Material I.D.=           1  Unblocked  Area=  0.4275E+04    Blocked  Area=  0.0000E+00    Leakage      =  0.0000E+00


      time   airbag/cv #  volume        pressure    internal energy      dm/dt in      density dm/dt out  total mass gas temp. surface area   reaction dm/dt outp dm/dt outv
 1.99999E+00       1     1.5566E+04     4.8569E+03     2.1993E+08     6.5000E+01     4.1758E-03  0.000E+00  6.500E+01  3.776E+03  6.398E+03  0.000E+00  0.000E+00  0.000E+00
    Material I.D.=           1  Unblocked  Area=  0.4264E+04    Blocked  Area=  0.0000E+00    Leakage      =  0.0000E+00
    Material I.D.=           1  Unblocked  Area=  0.4264E+04    Blocked  Area=  0.0000E+00    Leakage      =  0.0000E+00
