$# LS-DYNA Keyword file created by LS-PrePost(R) V4.10.5-23Jun2023
$# Created on Aug-16-2024 (15:29:16)
*KEYWORD
*TITLE
$#                                                                         title
LS-DYNA keyword deck by LS-PrePost
*CONTROL_TERMINATION
$#  endtim    endcyc     dtmin    endeng    endmas     nosol
      40.0         0       0.0       0.01.000000E8         0
*CONTROL_TIMESTEP
$#  dtinit    tssfac      isdo    tslimt     dt2ms      lctm     erode     ms1st
       0.0       0.0         0       0.0       0.0         0         0         0
*DATABASE_ABSTAT
$#      dt    binary      lcur     ioopt
       0.5         0         0         1
*DATABASE_BINARY_D3PLOT
$#      dt      lcdt      beam     npltc    psetid
       0.5         0         0         0         0
*LOAD_GRAVITY_PART_SET
$#     pid       dof        lc     accel      lcdr      stga      stgr
         1         3         0      1.62         0         0         0
*CONTACT_AUTOMATIC_ONE_WAY_SURFACE_TO_SURFACE_ID
$#     cid                                                                 title
         1bag (slave) on floor (master) contact
$#   surfa     surfb  surfatyp  surfbtyp   saboxid   sbboxid      sapr      sbpr
         1         2         2         0         0         0         1         1
$#      fs        fd        dc        vc       vdc    penchk        bt        dt
       0.0       0.0       0.0       0.0       0.0         0       0.01.00000E20
$#    sfsa      sfsb      sast      sbst     sfsat     sfsbt       fsf       vsf
       1.0       1.0       1.0       1.0       1.0       1.0       1.0       1.0
*SET_PART_LIST_TITLE
airbag
$#     sid       da1       da2       da3       da4    solver
         1       0.0       0.0       0.0       0.0MECH
$#    pid1      pid2      pid3      pid4      pid5      pid6      pid7      pid8
         1         2         0         0         0         0         0         0
*SET_SEGMENT
$#     sid       da1       da2       da3       da4    solver       its         -
         2       0.0       0.0       0.0       0.0MECH               0          
$#      n1        n2        n3        n4        a1        a2        a3        a4
     18637     18636     18605     18606       0.0       0.0       0.0       0.0
     17840     18801     18802     17841       0.0       0.0       0.0       0.0
     18892     18891     18860     18861       0.0       0.0       0.0       0.0
     18095     19056     19057     18096       0.0       0.0       0.0       0.0
     19147     19146     19115     19116       0.0       0.0       0.0       0.0
     18350     19311     19312     18351       0.0       0.0       0.0       0.0
     19402     19401     19370     19371       0.0       0.0       0.0       0.0
     18605     19566     19567     18606       0.0       0.0       0.0       0.0
     18576     18607     19568     19537       0.0       0.0       0.0       0.0
     18321     18352     19313     19282       0.0       0.0       0.0       0.0
     18066     18097     19058     19027       0.0       0.0       0.0       0.0
     17811     17842     18803     18772       0.0       0.0       0.0       0.0
     17556     17587     18548     18517       0.0       0.0       0.0       0.0
     17301     17332     18293     18262       0.0       0.0       0.0       0.0
     17046     17077     18038     18007       0.0       0.0       0.0       0.0
     16791     16822     17783     17752       0.0       0.0       0.0       0.0
     16536     16567     17528     17497       0.0       0.0       0.0       0.0
     16281     16312     17273     17242       0.0       0.0       0.0       0.0
     16026     16057     17018     16987       0.0       0.0       0.0       0.0
     15771     15802     16763     16732       0.0       0.0       0.0       0.0
$ ... 25481 like lines cut
*MAT_FABRIC_TITLE
Airbag
$#     mid        ro        ea        eb         -      prba      prab         -
         1    1440.01.50000E111.00000E11                 0.2       0.2          
$#     gab         -         -       cse        el       prl    lratio      damp
      0.04                           1.03.000000E9      0.35       0.1       0.2
$#    aopt       flc       fac       ela      lnrc      form     fvopt    tsrfac
       0.0       0.0       0.0       0.0       0.0         0         2       0.0
$#  unused    rgbrth     a0ref        a1        a2        a3        x0        x1
                 0.0         1       0.0       0.0       0.0       0.0       0.0
$#      v1        v2        v3         -         -         -      beta    isrefg
       0.0       0.0       0.0                                     0.0         0
*MAT_RIGID_TITLE
Gas Nozzle
$#     mid        ro         e        pr         n    couple         m     alias
         2    2400.03.000000E9       0.3       0.0       0.0       0.0          
$#     cmo      con1      con2
       1.0         7         7
$#lco or a1        a2        a3        v1        v2        v3
       0.0       0.0       0.0       0.0       0.0       0.0
*MAT_SPOTWELD_TITLE
spotweld
$#     mid        ro         e        pr      sigy        eh        dt     tfail
         5    7830.02.07000E11       0.3      0.01       0.0       0.0       0.0
$#   efail       nrr       nrs       nrt       mrr       mss       mtt        nf
       0.0       0.0       0.0       0.0       0.0       0.0       0.0       0.0
*PART
$#                                                                         title
fabric
$#     pid     secid       mid     eosid      hgid      grav    adpopt      tmid
         1         1         1         0         0         0         0         0
*SECTION_SHELL_TITLE
Shell
$#   secid    elform      shrf       nip     propt   qr/irid     icomp     setyp
         1         5       1.0         1       1.0         0         0         1
$#      t1        t2        t3        t4      nloc     marea      idof    edgset
       0.4       0.4       0.4       0.4       0.0       0.0       0.0         0
*PART
$#                                                                         title
null
$#     pid     secid       mid     eosid      hgid      grav    adpopt      tmid
         2         1         1         0         0         0         0         0
*PART
$#                                                                         title
gas nozzle
$#     pid     secid       mid     eosid      hgid      grav    adpopt      tmid
         3         1         2         0         0         0         0         0
*PART
$#                                                                         title
box solid
$#     pid     secid       mid     eosid      hgid      grav    adpopt      tmid
         4         2         2         0         0         0         0         0
*SECTION_SOLID
$#   secid    elform       aet    unused    unused    unused    cohoff   gaskeit
         2         1         0                                     0.0       0.0
*PART
$#                                                                         title
Beam5
$#     pid     secid       mid     eosid      hgid      grav    adpopt      tmid
         5         3         5         0         0         0         0         0
*SECTION_BEAM_TITLE
spotweld beam
$#   secid    elform      shrf   qr/irid       cst     scoor       nsm     naupd
         3         9       1.0         2         1       0.0       0.0         0
$#     ts1       ts2       tt1       tt2     print         -     itoff
     0.004     0.004       0.0       0.0       0.0                 0.0
*PART
$#                                                                         title
Beam6
$#     pid     secid       mid     eosid      hgid      grav    adpopt      tmid
         6         3         5         0         0         0         0         0
*DEFINE_CURVE_TITLE
Mass Flow Rate
$#    lcid      sidr       sfa       sfo      offa      offo    dattyp     lcint
         1         0       1.0       1.0       0.0       0.0         0         0
$#                a1                  o1
                 0.0                 0.0
                20.0               650.0
                30.0                 0.0
*AIRBAG_WANG_NEFSKE_ID
$#      id                                                                 title
         1                                                                      
$#     sid    sidtyp      rbid      vsca      psca      vini       mwd      spsf
         1         1         0       1.0       1.0       0.0       0.0       0.0
$#      cv        cp         t       lct      lcmt      tvol      lcdt      iabt
     896.0    1204.0    3600.0         0         1       0.0         0     260.0
$#     c23     lcc23       a23     lca23      cp23    lccp23      ap23    lcap23
       0.0         0      -1.0         0       0.0         0    2300.0         0
$#      pe        ro        gc     lcefr     pover      ppop       opt     knkdn
3.0000E-103.9000E-15       0.0         0       0.0       0.0         1         0
$#     ioc       ioa      ivol       iro        it      lcbf
       0.0       0.0       0.0       0.0       0.0         0
*ELEMENT_SOLID
$#   eid     pid      n1      n2      n3      n4      n5      n6      n7      n8
    4449       4    9863    9864    9895    9894   10824   10825   10856   10855
    4450       4    9864    9865    9896    9895   10825   10826   10857   10856
    4451       4    9865    9866    9897    9896   10826   10827   10858   10857
    4452       4    9866    9867    9898    9897   10827   10828   10859   10858
    4453       4    9867    9868    9899    9898   10828   10829   10860   10859
    4454       4    9868    9869    9900    9899   10829   10830   10861   10860
    4455       4    9869    9870    9901    9900   10830   10831   10862   10861
    4456       4    9870    9871    9902    9901   10831   10832   10863   10862
    4457       4    9871    9872    9903    9902   10832   10833   10864   10863
    4458       4    9872    9873    9904    9903   10833   10834   10865   10864
    4459       4    9873    9874    9905    9904   10834   10835   10866   10865
    4460       4    9874    9875    9906    9905   10835   10836   10867   10866
    4461       4    9875    9876    9907    9906   10836   10837   10868   10867
    4462       4    9876    9877    9908    9907   10837   10838   10869   10868
    4463       4    9877    9878    9909    9908   10838   10839   10870   10869
    4464       4    9878    9879    9910    9909   10839   10840   10871   10870
    4465       4    9879    9880    9911    9910   10840   10841   10872   10871
    4466       4    9880    9881    9912    9911   10841   10842   10873   10872
    4467       4    9881    9882    9913    9912   10842   10843   10874   10873
    4468       4    9882    9883    9914    9913   10843   10844   10875   10874
$ ... 8980 like lines cut
*ELEMENT_SHELL
$#   eid     pid      n1      n2      n3      n4      n5      n6      n7      n8
       1       1       1      13      14      14       0       0       0       0
       2       1       1      14      15       2       0       0       0       0
       3       1       2      15      16       3       0       0       0       0
       4       1       3      16      17       4       0       0       0       0
       5       1       4      17      18       5       0       0       0       0
       6       1       5      18      19       6       0       0       0       0
       7       1       6      19      20       7       0       0       0       0
       8       1       7      20      21       8       0       0       0       0
       9       1       8      21      22       9       0       0       0       0
      10       1       9      22      23      23       0       0       0       0
      11       1      10      28      29      29       0       0       0       0
      12       1      10      29      30      11       0       0       0       0
      13       1      11      30      31      12       0       0       0       0
      14       1      12      31      32      13       0       0       0       0
      15       1      13      32      33      14       0       0       0       0
      16       1      14      33      34      15       0       0       0       0
      17       1      15      34      35      16       0       0       0       0
      18       1      16      35      36      17       0       0       0       0
      19       1      17      36      37      18       0       0       0       0
      20       1      18      37      38      19       0       0       0       0
$ ... 3304 like lines cut
*ELEMENT_BEAM
$#   eid     pid      n1      n2      n3     rt1     rr1     rt2     rr2   local
   13449       5   19961    1729       0       0       0       0       0       2
   13450       5   19945     297       0       0       0       0       0       2
   13451       5   20201    1028       0       0       0       0       0       2
   13453       5   19705     998       0       0       0       0       0       2
   13455       6    4810    4889       0       0       0       0       0       0
   13456       6    4794    4866       0       0       0       0       0       0
   13457       6    4687    4579       0       0       0       0       0       0
   13458       6    4588    4694       0       0       0       0       0       0
*NODE
$#   nid               x               y               z      tc      rc
       1       -29.61819       -4.743619             0.5       0       0
       2       -29.78266       -3.577157             0.5       0       0
       3       -29.90211       -2.393841             0.5       0       0
       4       -29.97487       -1.199472             0.5       0       0
       5           -30.0   -1.029075e-13             0.5       0       0
       6       -29.97487        1.199474             0.5       0       0
       7       -29.90211        2.393843             0.5       0       0
       8       -29.78266        3.577159             0.5       0       0
       9       -29.61819        4.743619             0.5       0       0
      10       -28.45422       -9.487651             0.5       0       0
      11       -28.79558       -8.398766             0.5       0       0
      12       -29.10203        -7.27084             0.5       0       0
      13         -29.369       -6.108542             0.5       0       0
      14       -28.86786       -4.956059             0.0       0       0
      15           -28.8            -3.6             0.0       0       0
      16           -28.8            -2.4             0.0       0       0
      17           -28.8       -1.199999             0.0       0       0
      18           -28.8             0.0             0.0       0       0
      19           -28.8        1.200001             0.0       0       0
      20           -28.8        2.400002             0.0       0       0
$ ... 13925 like lines cut
*END
