$# LS-DYNA Keyword file created by LS-PrePost(R) V4.10.5-23Jun2023
$# Created on Jun-28-2024 (12:15:04)
*KEYWORD   
*CONTROL_TERMINATION
      10.0         0       0.0       0.01.000000E8         0
*DATABASE_BINARY_D3PLOT
      0.05         0         0         0         0
*CONTACT_INTERIOR
         1
*HOURGLASS
         1         0       0.1         0       1.5      0.06       0.1       0.1
*MAT_MOONEY-RIVLIN_RUBBER
         19.20000E-7      0.495.40000E-44.75000E-5       0.0
       0.0       0.0       0.0         0
*PART
Balll
         1         1         1         0         1         0         0         0
*SECTION_SOLID
         1         1         0                                     0.0       0.0
*INITIAL_VELOCITY_GENERATION
         1         2       0.0       0.0     -30.0       0.0         0         0
       0.0       0.0       0.0       0.0       0.0       0.0         0         0
*ELEMENT_SOLID
       1       1       1      37      43       7       2      38      44       8
       2       1       2      38      44       8       3      39      45       9
       3       1       3      39      45       9       4      40      46      10
       4       1       4      40      46      10       5      41      47      11
       5       1       5      41      47      11       6      42      48      12
       6       1       7      43      49      13       8      44      50      14
       7       1       8      44      50      14       9      45      51      15
       8       1       9      45      51      15      10      46      52      16
       9       1      10      46      52      16      11      47      53      17
      10       1      11      47      53      17      12      48      54      18
      11       1      13      49      55      19      14      50      56      20
      12       1      14      50      56      20      15      51      57      21
      13       1      15      51      57      21      16      52      58      22
      14       1      16      52      58      22      17      53      59      23
      15       1      17      53      59      23      18      54      60      24
      16       1      19      55      61      25      20      56      62      26
      17       1      20      56      62      26      21      57      63      27
      18       1      21      57      63      27      22      58      64      28
      19       1      22      58      64      28      23      59      65      29
      20       1      23      59      65      29      24      60      66      30
      21       1      25      61      67      31      26      62      68      32
      22       1      26      62      68      32      27      63      69      33
      23       1      27      63      69      33      28      64      70      34
      24       1      28      64      70      34      29      65      71      35
      25       1      29      65      71      35      30      66      72      36
      26       1      37      73      79      43      38      74      80      44
      27       1      38      74      80      44      39      75      81      45
      28       1      39      75      81      45      40      76      82      46
      29       1      40      76      82      46      41      77      83      47
      30       1      41      77      83      47      42      78      84      48
      31       1      43      79      85      49      44      80      86      50
      32       1      44      80      86      50      45      81      87      51
      33       1      45      81      87      51      46      82      88      52
      34       1      46      82      88      52      47      83      89      53
      35       1      47      83      89      53      48      84      90      54
      36       1      49      85      91      55      50      86      92      56
      37       1      50      86      92      56      51      87      93      57
      38       1      51      87      93      57      52      88      94      58
      39       1      52      88      94      58      53      89      95      59
      40       1      53      89      95      59      54      90      96      60
      41       1      55      91      97      61      56      92      98      62
      42       1      56      92      98      62      57      93      99      63
      43       1      57      93      99      63      58      94     100      64
      44       1      58      94     100      64      59      95     101      65
      45       1      59      95     101      65      60      96     102      66
      46       1      61      97     103      67      62      98     104      68
      47       1      62      98     104      68      63      99     105      69
      48       1      63      99     105      69      64     100     106      70
      49       1      64     100     106      70      65     101     107      71
      50       1      65     101     107      71      66     102     108      72
      51       1      73     109     115      79      74     110     116      80
      52       1      74     110     116      80      75     111     117      81
      53       1      75     111     117      81      76     112     118      82
      54       1      76     112     118      82      77     113     119      83
      55       1      77     113     119      83      78     114     120      84
      56       1      79     115     121      85      80     116     122      86
      57       1      80     116     122      86      81     117     123      87
      58       1      81     117     123      87      82     118     124      88
      59       1      82     118     124      88      83     119     125      89
      60       1      83     119     125      89      84     120     126      90
      61       1      85     121     127      91      86     122     128      92
      62       1      86     122     128      92      87     123     129      93
      63       1      87     123     129      93      88     124     130      94
      64       1      88     124     130      94      89     125     131      95
      65       1      89     125     131      95      90     126     132      96
      66       1      91     127     133      97      92     128     134      98
      67       1      92     128     134      98      93     129     135      99
      68       1      93     129     135      99      94     130     136     100
      69       1      94     130     136     100      95     131     137     101
      70       1      95     131     137     101      96     132     138     102
      71       1      97     133     139     103      98     134     140     104
      72       1      98     134     140     104      99     135     141     105
      73       1      99     135     141     105     100     136     142     106
      74       1     100     136     142     106     101     137     143     107
      75       1     101     137     143     107     102     138     144     108
      76       1     109     145     151     115     110     146     152     116
      77       1     110     146     152     116     111     147     153     117
      78       1     111     147     153     117     112     148     154     118
      79       1     112     148     154     118     113     149     155     119
      80       1     113     149     155     119     114     150     156     120
      81       1     115     151     157     121     116     152     158     122
      82       1     116     152     158     122     117     153     159     123
      83       1     117     153     159     123     118     154     160     124
      84       1     118     154     160     124     119     155     161     125
      85       1     119     155     161     125     120     156     162     126
      86       1     121     157     163     127     122     158     164     128
      87       1     122     158     164     128     123     159     165     129
      88       1     123     159     165     129     124     160     166     130
      89       1     124     160     166     130     125     161     167     131
      90       1     125     161     167     131     126     162     168     132
      91       1     127     163     169     133     128     164     170     134
      92       1     128     164     170     134     129     165     171     135
      93       1     129     165     171     135     130     166     172     136
      94       1     130     166     172     136     131     167     173     137
      95       1     131     167     173     137     132     168     174     138
      96       1     133     169     175     139     134     170     176     140
      97       1     134     170     176     140     135     171     177     141
      98       1     135     171     177     141     136     172     178     142
      99       1     136     172     178     142     137     173     179     143
     100       1     137     173     179     143     138     174     180     144
     101       1     145     181     187     151     146     182     188     152
     102       1     146     182     188     152     147     183     189     153
     103       1     147     183     189     153     148     184     190     154
     104       1     148     184     190     154     149     185     191     155
     105       1     149     185     191     155     150     186     192     156
     106       1     151     187     193     157     152     188     194     158
     107       1     152     188     194     158     153     189     195     159
     108       1     153     189     195     159     154     190     196     160
     109       1     154     190     196     160     155     191     197     161
     110       1     155     191     197     161     156     192     198     162
     111       1     157     193     199     163     158     194     200     164
     112       1     158     194     200     164     159     195     201     165
     113       1     159     195     201     165     160     196     202     166
     114       1     160     196     202     166     161     197     203     167
     115       1     161     197     203     167     162     198     204     168
     116       1     163     199     205     169     164     200     206     170
     117       1     164     200     206     170     165     201     207     171
     118       1     165     201     207     171     166     202     208     172
     119       1     166     202     208     172     167     203     209     173
     120       1     167     203     209     173     168     204     210     174
     121       1     169     205     211     175     170     206     212     176
     122       1     170     206     212     176     171     207     213     177
     123       1     171     207     213     177     172     208     214     178
     124       1     172     208     214     178     173     209     215     179
     125       1     173     209     215     179     174     210     216     180
     126       1     181     226     259     187     182     254     260     188
     127       1     182     254     260     188     183     255     261     189
     128       1     183     255     261     189     184     256     262     190
     129       1     184     256     262     190     185     257     263     191
     130       1     185     257     263     191     186     258     264     192
     131       1     187     259     265     193     188     260     266     194
     132       1     188     260     266     194     189     261     267     195
     133       1     189     261     267     195     190     262     268     196
     134       1     190     262     268     196     191     263     269     197
     135       1     191     263     269     197     192     264     270     198
     136       1     193     265     217     199     194     266     272     200
     137       1     194     266     272     200     195     267     273     201
     138       1     195     267     273     201     196     268     274     202
     139       1     196     268     274     202     197     269     275     203
     140       1     197     269     275     203     198     270     276     204
     141       1     199     217     277     205     200     272     278     206
     142       1     200     272     278     206     201     273     279     207
     143       1     201     273     279     207     202     274     280     208
     144       1     202     274     280     208     203     275     281     209
     145       1     203     275     281     209     204     276     282     210
     146       1     205     277     283     211     206     278     284     212
     147       1     206     278     284     212     207     279     285     213
     148       1     207     279     285     213     208     280     286     214
     149       1     208     280     286     214     209     281     287     215
     150       1     209     281     287     215     210     282     288     216
     151       1     226     289     295     259     254     290     296     260
     152       1     254     290     296     260     255     291     297     261
     153       1     255     291     297     261     256     292     298     262
     154       1     256     292     298     262     257     293     299     263
     155       1     257     293     299     263     258     294     300     264
     156       1     259     295     301     265     260     296     302     266
     157       1     260     296     302     266     261     297     303     267
     158       1     261     297     303     267     262     298     304     268
     159       1     262     298     304     268     263     299     305     269
     160       1     263     299     305     269     264     300     306     270
     161       1     265     301     235     217     266     302     308     272
     162       1     266     302     308     272     267     303     309     273
     163       1     267     303     309     273     268     304     310     274
     164       1     268     304     310     274     269     305     311     275
     165       1     269     305     311     275     270     306     312     276
     166       1     217     235     313     277     272     308     314     278
     167       1     272     308     314     278     273     309     315     279
     168       1     273     309     315     279     274     310     316     280
     169       1     274     310     316     280     275     311     317     281
     170       1     275     311     317     281     276     312     318     282
     171       1     277     313     319     283     278     314     320     284
     172       1     278     314     320     284     279     315     321     285
     173       1     279     315     321     285     280     316     322     286
     174       1     280     316     322     286     281     317     323     287
     175       1     281     317     323     287     282     318     324     288
     176       1     289     325     241     295     290     326     332     296
     177       1     290     326     332     296     291     327     333     297
     178       1     291     327     333     297     292     328     334     298
     179       1     292     328     334     298     293     329     335     299
     180       1     293     329     335     299     294     330     336     300
     181       1     295     241     337     301     296     332     338     302
     182       1     296     332     338     302     297     333     339     303
     183       1     297     333     339     303     298     334     340     304
     184       1     298     334     340     304     299     335     341     305
     185       1     299     335     341     305     300     336     342     306
     186       1     301     337     343     235     302     338     344     308
     187       1     302     338     344     308     303     339     345     309
     188       1     303     339     345     309     304     340     346     310
     189       1     304     340     346     310     305     341     347     311
     190       1     305     341     347     311     306     342     348     312
     191       1     235     343     349     313     308     344     350     314
     192       1     308     344     350     314     309     345     351     315
     193       1     309     345     351     315     310     346     352     316
     194       1     310     346     352     316     311     347     353     317
     195       1     311     347     353     317     312     348     354     318
     196       1     313     349     242     319     314     350     356     320
     197       1     314     350     356     320     315     351     357     321
     198       1     315     351     357     321     316     352     358     322
     199       1     316     352     358     322     317     353     359     323
     200       1     317     353     359     323     318     354     360     324
     201       1     325     361     367     241     326     362     368     332
     202       1     326     362     368     332     327     363     369     333
     203       1     327     363     369     333     328     364     370     334
     204       1     328     364     370     334     329     365     371     335
     205       1     329     365     371     335     330     366     372     336
     206       1     241     367     373     337     332     368     374     338
     207       1     332     368     374     338     333     369     375     339
     208       1     333     369     375     339     334     370     376     340
     209       1     334     370     376     340     335     371     377     341
     210       1     335     371     377     341     336     372     378     342
     211       1     337     373     379     343     338     374     380     344
     212       1     338     374     380     344     339     375     381     345
     213       1     339     375     381     345     340     376     382     346
     214       1     340     376     382     346     341     377     383     347
     215       1     341     377     383     347     342     378     384     348
     216       1     343     379     385     349     344     380     386     350
     217       1     344     380     386     350     345     381     387     351
     218       1     345     381     387     351     346     382     388     352
     219       1     346     382     388     352     347     383     389     353
     220       1     347     383     389     353     348     384     390     354
     221       1     349     385     391     242     350     386     392     356
     222       1     350     386     392     356     351     387     393     357
     223       1     351     387     393     357     352     388     394     358
     224       1     352     388     394     358     353     389     395     359
     225       1     353     389     395     359     354     390     396     360
     226       1     361     397     403     367     362     398     404     368
     227       1     362     398     404     368     363     399     405     369
     228       1     363     399     405     369     364     400     406     370
     229       1     364     400     406     370     365     401     407     371
     230       1     365     401     407     371     366     402     408     372
     231       1     367     403     409     373     368     404     410     374
     232       1     368     404     410     374     369     405     411     375
     233       1     369     405     411     375     370     406     412     376
     234       1     370     406     412     376     371     407     413     377
     235       1     371     407     413     377     372     408     414     378
     236       1     373     409     415     379     374     410     416     380
     237       1     374     410     416     380     375     411     417     381
     238       1     375     411     417     381     376     412     418     382
     239       1     376     412     418     382     377     413     419     383
     240       1     377     413     419     383     378     414     420     384
     241       1     379     415     421     385     380     416     422     386
     242       1     380     416     422     386     381     417     423     387
     243       1     381     417     423     387     382     418     424     388
     244       1     382     418     424     388     383     419     425     389
     245       1     383     419     425     389     384     420     426     390
     246       1     385     421     427     391     386     422     428     392
     247       1     386     422     428     392     387     423     429     393
     248       1     387     423     429     393     388     424     430     394
     249       1     388     424     430     394     389     425     431     395
     250       1     389     425     431     395     390     426     432     396
     251       1     211     283     475     175     212     284     476     176
     252       1     212     284     476     176     213     285     477     177
     253       1     213     285     477     177     214     286     478     178
     254       1     214     286     478     178     215     287     479     179
     255       1     215     287     479     179     216     288     480     180
     256       1     175     475     240     139     176     476     482     140
     257       1     176     476     482     140     177     477     483     141
     258       1     177     477     483     141     178     478     484     142
     259       1     178     478     484     142     179     479     485     143
     260       1     179     479     485     143     180     480     486     144
     261       1     139     240     487     103     140     482     488     104
     262       1     140     482     488     104     141     483     489     105
     263       1     141     483     489     105     142     484     490     106
     264       1     142     484     490     106     143     485     491     107
     265       1     143     485     491     107     144     486     492     108
     266       1     103     487     439      67     104     488     494      68
     267       1     104     488     494      68     105     489     495      69
     268       1     105     489     495      69     106     490     496      70
     269       1     106     490     496      70     107     491     497      71
     270       1     107     491     497      71     108     492     498      72
     271       1      67     439     231      31      68     494     500      32
     272       1      68     494     500      32      69     495     501      33
     273       1      69     495     501      33      70     496     502      34
     274       1      70     496     502      34      71     497     503      35
     275       1      71     497     503      35      72     498     504      36
     276       1     283     319     437     475     284     320     512     476
     277       1     284     320     512     476     285     321     513     477
     278       1     285     321     513     477     286     322     514     478
     279       1     286     322     514     478     287     323     515     479
     280       1     287     323     515     479     288     324     470     480
     281       1     475     437     517     240     476     512     518     482
     282       1     476     512     518     482     477     513     519     483
     283       1     477     513     519     483     478     514     520     484
     284       1     478     514     520     484     479     515     521     485
     285       1     479     515     521     485     480     470     522     486
     286       1     240     517     523     487     482     518     524     488
     287       1     482     518     524     488     483     519     525     489
     288       1     483     519     525     489     484     520     526     490
     289       1     484     520     526     490     485     521     527     491
     290       1     485     521     527     491     486     522     528     492
     291       1     487     523     529     439     488     524     530     494
     292       1     488     524     530     494     489     525     531     495
     293       1     489     525     531     495     490     526     532     496
     294       1     490     526     532     496     491     527     533     497
     295       1     491     527     533     497     492     528     534     498
     296       1     439     529     535     231     494     530     536     500
     297       1     494     530     536     500     495     531     537     501
     298       1     495     531     537     501     496     532     538     502
     299       1     496     532     538     502     497     533     539     503
     300       1     497     533     539     503     498     534     540     504
     301       1     319     242     547     437     320     356     548     512
     302       1     320     356     548     512     321     357     549     513
     303       1     321     357     549     513     322     358     550     514
     304       1     322     358     550     514     323     359     551     515
     305       1     323     359     551     515     324     360     452     470
     306       1     437     547     238     517     512     548     554     518
     307       1     512     548     554     518     513     549     555     519
     308       1     513     549     555     519     514     550     556     520
     309       1     514     550     556     520     515     551     557     521
     310       1     515     551     557     521     470     452     558     522
     311       1     517     238     559     523     518     554     560     524
     312       1     518     554     560     524     519     555     561     525
     313       1     519     555     561     525     520     556     562     526
     314       1     520     556     562     526     521     557     563     527
     315       1     521     557     563     527     522     558     510     528
     316       1     523     559     457     529     524     560     566     530
     317       1     524     560     566     530     525     561     567     531
     318       1     525     561     567     531     526     562     568     532
     319       1     526     562     568     532     527     563     569     533
     320       1     527     563     569     533     528     510     509     534
     321       1     529     457     234     535     530     566     572     536
     322       1     530     566     572     536     531     567     573     537
     323       1     531     567     573     537     532     568     574     538
     324       1     532     568     574     538     533     569     575     539
     325       1     533     569     575     539     534     509     508     540
     326       1     242     391     577     547     356     392     584     548
     327       1     356     392     584     548     357     393     585     549
     328       1     357     393     585     549     358     394     586     550
     329       1     358     394     586     550     359     395     587     551
     330       1     359     395     587     551     360     396     588     452
     331       1     547     577     589     238     548     584     590     554
     332       1     548     584     590     554     549     585     591     555
     333       1     549     585     591     555     550     586     592     556
     334       1     550     586     592     556     551     587     593     557
     335       1     551     587     593     557     452     588     594     558
     336       1     238     589     239     559     554     590     596     560
     337       1     554     590     596     560     555     591     597     561
     338       1     555     591     597     561     556     592     598     562
     339       1     556     592     598     562     557     593     599     563
     340       1     557     593     599     563     558     594     600     510
     341       1     559     239     601     457     560     596     602     566
     342       1     560     596     602     566     561     597     603     567
     343       1     561     597     603     567     562     598     604     568
     344       1     562     598     604     568     563     599     605     569
     345       1     563     599     605     569     510     600     606     509
     346       1     457     601     607     234     566     602     608     572
     347       1     566     602     608     572     567     603     609     573
     348       1     567     603     609     573     568     604     610     574
     349       1     568     604     610     574     569     605     611     575
     350       1     569     605     611     575     509     606     612     508
     351       1     391     427     619     577     392     428     620     584
     352       1     392     428     620     584     393     429     621     585
     353       1     393     429     621     585     394     430     622     586
     354       1     394     430     622     586     395     431     623     587
     355       1     395     431     623     587     396     432     253     588
     356       1     577     619     625     589     584     620     626     590
     357       1     584     620     626     590     585     621     627     591
     358       1     585     621     627     591     586     622     628     592
     359       1     586     622     628     592     587     623     629     593
     360       1     587     623     629     593     588     253     630     594
     361       1     589     625     631     239     590     626     632     596
     362       1     590     626     632     596     591     627     633     597
     363       1     591     627     633     597     592     628     634     598
     364       1     592     628     634     598     593     629     635     599
     365       1     593     629     635     599     594     630     636     600
     366       1     239     631     637     601     596     632     638     602
     367       1     596     632     638     602     597     633     639     603
     368       1     597     633     639     603     598     634     640     604
     369       1     598     634     640     604     599     635     641     605
     370       1     599     635     641     605     600     636     642     606
     371       1     601     637     643     607     602     638     644     608
     372       1     602     638     644     608     603     639     645     609
     373       1     603     639     645     609     604     640     646     610
     374       1     604     640     646     610     605     641     647     611
     375       1     605     641     647     611     606     642     271     612
     376       1      31     231     691      25      32     500     692      26
     377       1      32     500     692      26      33     501     693      27
     378       1      33     501     693      27      34     502     694      28
     379       1      34     502     694      28      35     503     695      29
     380       1      35     503     695      29      36     504     696      30
     381       1      25     691     219      19      26     692     698      20
     382       1      26     692     698      20      27     693     699      21
     383       1      27     693     699      21      28     694     700      22
     384       1      28     694     700      22      29     695     701      23
     385       1      29     695     701      23      30     696     702      24
     386       1      19     219     222      13      20     698     704      14
     387       1      20     698     704      14      21     699     705      15
     388       1      21     699     705      15      22     700     706      16
     389       1      22     700     706      16      23     701     707      17
     390       1      23     701     707      17      24     702     708      18
     391       1      13     222     225       7      14     704     710       8
     392       1      14     704     710       8      15     705     711       9
     393       1      15     705     711       9      16     706     712      10
     394       1      16     706     712      10      17     707     713      11
     395       1      17     707     713      11      18     708     714      12
     396       1       7     225     244       1       8     710     716       2
     397       1       8     710     716       2       9     711     717       3
     398       1       9     711     717       3      10     712     718       4
     399       1      10     712     718       4      11     713     719       5
     400       1      11     713     719       5      12     714     570       6
     401       1     231     535     583     691     500     536     728     692
     402       1     500     536     728     692     501     537     729     693
     403       1     501     537     729     693     502     538     730     694
     404       1     502     538     730     694     503     539     731     695
     405       1     503     539     731     695     504     540     666     696
     406       1     691     583     232     219     692     728     734     698
     407       1     692     728     734     698     693     729     735     699
     408       1     693     729     735     699     694     730     736     700
     409       1     694     730     736     700     695     731     737     701
     410       1     695     731     737     701     696     666     738     702
     411       1     219     232     721     222     698     734     740     704
     412       1     698     734     740     704     699     735     741     705
     413       1     699     735     741     705     700     736     742     706
     414       1     700     736     742     706     701     737     743     707
     415       1     701     737     743     707     702     738     744     708
     416       1     222     721     745     225     704     740     746     710
     417       1     704     740     746     710     705     741     747     711
     418       1     705     741     747     711     706     742     748     712
     419       1     706     742     748     712     707     743     749     713
     420       1     707     743     749     713     708     744     680     714
     421       1     225     745     751     244     710     746     752     716
     422       1     710     746     752     716     711     747     753     717
     423       1     711     747     753     717     712     748     754     718
     424       1     712     748     754     718     713     749     755     719
     425       1     713     749     755     719     714     680     679     570
     426       1     535     234     763     583     536     572     764     728
     427       1     536     572     764     728     537     573     765     729
     428       1     537     573     765     729     538     574     766     730
     429       1     538     574     766     730     539     575     767     731
     430       1     539     575     767     731     540     508     768     666
     431       1     583     763     769     232     728     764     770     734
     432       1     728     764     770     734     729     765     771     735
     433       1     729     765     771     735     730     766     772     736
     434       1     730     766     772     736     731     767     773     737
     435       1     731     767     773     737     666     768     774     738
     436       1     232     769     761     721     734     770     776     740
     437       1     734     770     776     740     735     771     777     741
     438       1     735     771     777     741     736     772     778     742
     439       1     736     772     778     742     737     773     779     743
     440       1     737     773     779     743     738     774     652     744
     441       1     721     761     233     745     740     776     782     746
     442       1     740     776     782     746     741     777     783     747
     443       1     741     777     783     747     742     778     784     748
     444       1     742     778     784     748     743     779     785     749
     445       1     743     779     785     749     744     652     786     680
     446       1     745     233     727     751     746     782     788     752
     447       1     746     782     788     752     747     783     789     753
     448       1     747     783     789     753     748     784     790     754
     449       1     748     784     790     754     749     785     791     755
     450       1     749     785     791     755     680     786     792     679
     451       1     234     607     649     763     572     608     800     764
     452       1     572     608     800     764     573     609     801     765
     453       1     573     609     801     765     574     610     802     766
     454       1     574     610     802     766     575     611     803     767
     455       1     575     611     803     767     508     612     511     768
     456       1     763     649     466     769     764     800     806     770
     457       1     764     800     806     770     765     801     807     771
     458       1     765     801     807     771     766     802     808     772
     459       1     766     802     808     772     767     803     809     773
     460       1     767     803     809     773     768     511     471     774
     461       1     769     466     811     761     770     806     812     776
     462       1     770     806     812     776     771     807     813     777
     463       1     771     807     813     777     772     808     814     778
     464       1     772     808     814     778     773     809     815     779
     465       1     773     809     815     779     774     471     816     652
     466       1     761     811     817     233     776     812     818     782
     467       1     776     812     818     782     777     813     819     783
     468       1     777     813     819     783     778     814     820     784
     469       1     778     814     820     784     779     815     821     785
     470       1     779     815     821     785     652     816     618     786
     471       1     233     817     760     727     782     818     824     788
     472       1     782     818     824     788     783     819     825     789
     473       1     783     819     825     789     784     820     775     790
     474       1     784     820     775     790     785     821     827     791
     475       1     785     821     827     791     786     618     823     792
     476       1     607     643     684     649     608     644     836     800
     477       1     608     644     836     800     609     645     837     801
     478       1     609     645     837     801     610     646     838     802
     479       1     610     646     838     802     611     647     839     803
     480       1     611     647     839     803     612     271     840     511
     481       1     649     684     675     466     800     836     842     806
     482       1     800     836     842     806     801     837     843     807
     483       1     801     837     843     807     802     838     844     808
     484       1     802     838     844     808     803     839     845     809
     485       1     803     839     845     809     511     840     733     471
     486       1     466     675     247     811     806     842     848     812
     487       1     806     842     848     812     807     843     849     813
     488       1     807     843     849     813     808     844     850     814
     489       1     808     844     850     814     809     845     851     815
     490       1     809     845     851     815     471     733     595     816
     491       1     811     247     759     817     812     848     854     818
     492       1     812     848     854     818     813     849     855     819
     493       1     813     849     855     819     814     850     856     820
     494       1     814     850     856     820     815     851     857     821
     495       1     815     851     857     821     816     595     715     618
     496       1     817     759     665     760     818     854     756     824
     497       1     818     854     756     824     819     855     841     825
     498       1     819     855     841     825     820     856     732     775
     499       1     820     856     732     775     821     857     863     827
     500       1     821     857     863     827     618     715     859     823
     501       1       1     244     229      37       2     716     908      38
     502       1       2     716     908      38       3     717     909      39
     503       1       3     717     909      39       4     718     910      40
     504       1       4     718     910      40       5     719     911      41
     505       1       5     719     911      41       6     570     564      42
     506       1      37     229     656      73      38     908     914      74
     507       1      38     908     914      74      39     909     915      75
     508       1      39     909     915      75      40     910     916      76
     509       1      40     910     916      76      41     911     917      77
     510       1      41     911     917      77      42     564     804      78
     511       1      73     656     228     109      74     914     920     110
     512       1      74     914     920     110      75     915     921     111
     513       1      75     915     921     111      76     916     922     112
     514       1      76     916     922     112      77     917     923     113
     515       1      77     917     923     113      78     804     884     114
     516       1     109     228     227     145     110     920     926     146
     517       1     110     920     926     146     111     921     927     147
     518       1     111     921     927     147     112     922     928     148
     519       1     112     922     928     148     113     923     929     149
     520       1     113     923     929     149     114     884     658     150
     521       1     145     227     226     181     146     926     254     182
     522       1     146     926     254     182     147     927     255     183
     523       1     147     927     255     183     148     928     256     184
     524       1     148     928     256     184     149     929     257     185
     525       1     149     929     257     185     150     658     258     186
     526       1     244     751     245     229     716     752     944     908
     527       1     716     752     944     908     717     753     945     909
     528       1     717     753     945     909     718     754     946     910
     529       1     718     754     946     910     719     755     947     911
     530       1     719     755     947     911     570     679     614     564
     531       1     229     245     897     656     908     944     950     914
     532       1     908     944     950     914     909     945     951     915
     533       1     909     945     951     915     910     946     952     916
     534       1     910     946     952     916     911     947     953     917
     535       1     911     947     953     917     564     614     615     804
     536       1     656     897     248     228     914     950     956     920
     537       1     914     950     956     920     915     951     957     921
     538       1     915     951     957     921     916     952     958     922
     539       1     916     952     958     922     917     953     959     923
     540       1     917     953     959     923     804     615     616     884
     541       1     228     248     795     227     920     956     962     926
     542       1     920     956     962     926     921     957     963     927
     543       1     921     957     963     927     922     958     964     928
     544       1     922     958     964     928     923     959     965     929
     545       1     923     959     965     929     884     616     617     658
     546       1     227     795     289     226     926     962     290     254
     547       1     926     962     290     254     927     963     291     255
     548       1     927     963     291     255     928     964     292     256
     549       1     928     964     292     256     929     965     293     257
     550       1     929     965     293     257     658     617     294     258
     551       1     751     727     456     245     752     788     949     944
     552       1     752     788     949     944     753     789     924     945
     553       1     753     789     924     945     754     790     905     946
     554       1     754     790     905     946     755     791     967     947
     555       1     755     791     967     947     679     792     507     614
     556       1     245     456     455     897     944     949     864     950
     557       1     944     949     864     950     945     924     861     951
     558       1     945     924     861     951     946     905     925     952
     559       1     946     905     925     952     947     967     934     953
     560       1     947     967     934     953     614     507     750     615
     561       1     897     455     454     248     950     864     975     956
     562       1     950     864     975     956     951     861     888     957
     563       1     951     861     888     957     952     925     828     958
     564       1     952     925     828     958     953     934     875     959
     565       1     953     934     875     959     615     750     871     616
     566       1     248     454     453     795     956     975     918     962
     567       1     956     975     918     962     957     888     961     963
     568       1     957     888     961     963     958     828     933     964
     569       1     958     828     933     964     959     875     835     965
     570       1     959     875     835     965     616     871     900     617
     571       1     795     453     325     289     962     918     326     290
     572       1     962     918     326     290     963     961     327     291
     573       1     963     961     327     291     964     933     328     292
     574       1     964     933     328     292     965     835     329     293
     575       1     965     835     329     293     617     900     330     294
     576       1     727     760     230     456     788     824     860     949
     577       1     788     824     860     949     789     825     941     924
     578       1     789     825     941     924     790     775     940     905
     579       1     790     775     940     905     791     827     939     967
     580       1     791     827     939     967     792     823     582     507
     581       1     456     230     655     455     949     860     937     864
     582       1     949     860     937     864     924     941     881     861
     583       1     924     941     881     861     905     940     893     925
     584       1     905     940     893     925     967     939     798     934
     585       1     967     939     798     934     507     582     505     750
     586       1     455     655     435     454     864     937     862     975
     587       1     864     937     862     975     861     881     973     888
     588       1     861     881     973     888     925     893     787     828
     589       1     925     893     787     828     934     798     739     875
     590       1     934     798     739     875     750     505     883     871
     591       1     454     435     657     453     975     862     903     918
     592       1     975     862     903     918     888     973     902     961
     593       1     888     973     902     961     828     787     858     933
     594       1     828     787     858     933     875     739     931     835
     595       1     875     739     931     835     871     883     506     900
     596       1     453     657     361     325     918     903     362     326
     597       1     918     903     362     326     961     902     363     327
     598       1     961     902     363     327     933     858     364     328
     599       1     933     858     364     328     835     931     365     329
     600       1     835     931     365     329     900     506     366     330
     601       1     760     665     664     230     824     756     938     860
     602       1     824     756     938     860     825     841     830     941
     603       1     825     841     830     941     775     732     930     940
     604       1     775     732     930     940     827     863     904     939
     605       1     827     863     904     939     823     859     913     582
     606       1     230     664     663     655     860     938     780     937
     607       1     860     938     780     937     941     830     799     881
     608       1     941     830     799     881     940     930     833     893
     609       1     940     930     833     893     939     904     832     798
     610       1     939     904     832     798     582     913     831     505
     611       1     655     663     662     435     937     780     829     862
     612       1     937     780     829     862     881     799     681     973
     613       1     881     799     681     973     893     833     697     787
     614       1     893     833     697     787     798     832     866     739
     615       1     798     832     866     739     505     831     703     883
     616       1     435     662     243     657     862     829     709     903
     617       1     862     829     709     903     973     681     722     902
     618       1     973     681     722     902     787     697     865     858
     619       1     787     697     865     858     739     866     822     931
     620       1     739     866     822     931     883     703     936     506
     621       1     657     243     397     361     903     709     398     362
     622       1     903     709     398     362     902     722     399     363
     623       1     902     722     399     363     858     865     400     364
     624       1     858     865     400     364     931     822     401     365
     625       1     931     822     401     365     506     936     402     366
     626       1     186     258     264     192     150     658     576     156
     627       1     150     658     576     156     114     884     942     120
     628       1     114     884     942     120      78     804     846      84
     629       1      78     804     846      84      42     564     834      48
     630       1      42     564     834      48       6     570     714      12
     631       1     192     264     270     198     156     576     689     162
     632       1     156     576     689     162     120     942     688     126
     633       1     120     942     688     126      84     846     687      90
     634       1      84     846     687      90      48     834     686      54
     635       1      48     834     686      54      12     714     708      18
     636       1     198     270     276     204     162     689     972     168
     637       1     162     689     972     168     126     688     493     132
     638       1     126     688     493     132      90     687     552      96
     639       1      90     687     552      96      54     686     906      60
     640       1      54     686     906      60      18     708     702      24
     641       1     204     276     282     210     168     972     805     174
     642       1     168     972     805     174     132     493     565     138
     643       1     132     493     565     138      96     552     966     102
     644       1      96     552     966     102      60     906     932      66
     645       1      60     906     932      66      24     702     696      30
     646       1     210     282     288     216     174     805     480     180
     647       1     174     805     480     180     138     565     486     144
     648       1     138     565     486     144     102     966     492     108
     649       1     102     966     492     108      66     932     498      72
     650       1      66     932     498      72      30     696     504      36
     651       1     258     294     300     264     658     617     685     576
     652       1     658     617     685     576     884     616     867     942
     653       1     884     616     867     942     804     615     553     846
     654       1     804     615     553     846     564     614     870     834
     655       1     564     614     870     834     570     679     680     714
     656       1     264     300     306     270     576     685     624     689
     657       1     576     685     624     689     942     867     668     688
     658       1     942     867     668     688     846     553     885     687
     659       1     846     553     885     687     834     870     797     686
     660       1     834     870     797     686     714     680     744     708
     661       1     270     306     312     276     689     624     948     972
     662       1     689     624     948     972     688     668     954     493
     663       1     688     668     954     493     687     885     960     552
     664       1     687     885     960     552     686     797     661     906
     665       1     686     797     661     906     708     744     738     702
     666       1     276     312     318     282     972     948     581     805
     667       1     972     948     581     805     493     954     580     565
     668       1     493     954     580     565     552     960     579     966
     669       1     552     960     579     966     906     661     578     932
     670       1     906     661     578     932     702     738     666     696
     671       1     282     318     324     288     805     581     470     480
     672       1     805     581     470     480     565     580     522     486
     673       1     565     580     522     486     966     579     528     492
     674       1     966     579     528     492     932     578     534     498
     675       1     932     578     534     498     696     666     540     504
     676       1     294     330     336     300     617     900     886     685
     677       1     617     900     886     685     616     871     810     867
     678       1     616     871     810     867     615     750     935     553
     679       1     615     750     935     553     614     507     876     870
     680       1     614     507     876     870     679     792     786     680
     681       1     300     336     342     306     685     886     545     624
     682       1     685     886     545     624     867     810     544     668
     683       1     867     810     544     668     553     935     543     885
     684       1     553     935     543     885     870     876     542     797
     685       1     870     876     542     797     680     786     652     744
     686       1     306     342     348     312     624     545     458     948
     687       1     624     545     458     948     668     544     877     954
     688       1     668     544     877     954     885     543     546     960
     689       1     885     543     546     960     797     542     882     661
     690       1     797     542     882     661     744     652     774     738
     691       1     312     348     354     318     948     458     887     581
     692       1     948     458     887     581     954     877     826     580
     693       1     954     877     826     580     960     546     976     579
     694       1     960     546     976     579     661     882     974     578
     695       1     661     882     974     578     738     774     768     666
     696       1     318     354     360     324     581     887     452     470
     697       1     581     887     452     470     580     826     558     522
     698       1     580     826     558     522     579     976     510     528
     699       1     579     976     510     528     578     974     509     534
     700       1     578     974     509     534     666     768     508     540
     701       1     330     366     372     336     900     506     676     886
     702       1     900     506     676     886     871     883     446     810
     703       1     871     883     446     810     750     505     613     935
     704       1     750     505     613     935     507     582     889     876
     705       1     507     582     889     876     792     823     618     786
     706       1     336     372     378     342     886     676     971     545
     707       1     886     676     971     545     810     446     970     544
     708       1     810     446     970     544     935     613     969     543
     709       1     935     613     969     543     876     889     968     542
     710       1     876     889     968     542     786     618     816     652
     711       1     342     378     384     348     545     971     894     458
     712       1     545     971     894     458     544     970     474     877
     713       1     544     970     474     877     543     969     473     546
     714       1     543     969     473     546     542     968     472     882
     715       1     542     968     472     882     652     816     471     774
     716       1     348     384     390     354     458     894     758     887
     717       1     458     894     758     887     877     474     469     826
     718       1     877     474     469     826     546     473     516     976
     719       1     546     473     516     976     882     472     440     974
     720       1     882     472     440     974     774     471     511     768
     721       1     354     390     396     360     887     758     588     452
     722       1     887     758     588     452     826     469     594     558
     723       1     826     469     594     558     976     516     600     510
     724       1     976     516     600     510     974     440     606     509
     725       1     974     440     606     509     768     511     612     508
     726       1     366     402     408     372     506     936     955     676
     727       1     506     936     955     676     883     703     847     446
     728       1     883     703     847     446     505     831     943     613
     729       1     505     831     943     613     582     913     901     889
     730       1     582     913     901     889     823     859     715     618
     731       1     372     408     414     378     676     955     541     971
     732       1     676     955     541     971     446     847     355     970
     733       1     446     847     355     970     613     943     331     969
     734       1     613     943     331     969     889     901     481     968
     735       1     889     901     481     968     618     715     595     816
     736       1     378     414     420     384     971     541     307     894
     737       1     971     541     307     894     970     355     757     474
     738       1     970     355     757     474     969     331     571     473
     739       1     969     331     571     473     968     481     781     472
     740       1     968     481     781     472     816     595     733     471
     741       1     384     420     426     390     894     307     499     758
     742       1     894     307     499     758     474     757     853     469
     743       1     474     757     853     469     473     571     907     516
     744       1     473     571     907     516     472     781     919     440
     745       1     472     781     919     440     471     733     840     511
     746       1     390     426     432     396     758     499     253     588
     747       1     758     499     253     588     469     853     630     594
     748       1     469     853     630     594     516     907     636     600
     749       1     516     907     636     600     440     919     642     606
     750       1     440     919     642     606     511     840     271     612
     751       1       1     244     225       7      37     229     224      43
     752       1      37     229     224      43      73     656     433      79
     753       1      73     656     433      79     109     228     223     115
     754       1     109     228     223     115     145     227     796     151
     755       1     145     227     796     151     181     226     259     187
     756       1       7     225     222      13      43     224     899      49
     757       1      43     224     899      49      79     433     221      85
     758       1      79     433     221      85     115     223     898     121
     759       1     115     223     898     121     151     796     220     157
     760       1     151     796     220     157     187     259     265     193
     761       1      13     222     219      19      49     899     896      55
     762       1      49     899     896      55      85     221     218      91
     763       1      85     221     218      91     121     898     436     127
     764       1     121     898     436     127     157     220     895     163
     765       1     157     220     895     163     193     265     217     199
     766       1      19     219     691      25      55     896     444      61
     767       1      55     896     444      61      91     218     443      97
     768       1      91     218     443      97     127     436     442     133
     769       1     127     436     442     133     163     895     441     169
     770       1     163     895     441     169     199     217     277     205
     771       1      25     691     231      31      61     444     439      67
     772       1      61     444     439      67      97     443     487     103
     773       1      97     443     487     103     133     442     240     139
     774       1     133     442     240     139     169     441     475     175
     775       1     169     441     475     175     205     277     283     211
     776       1     244     751     745     225     229     245     892     224
     777       1     229     245     892     224     656     897     891     433
     778       1     656     897     891     433     228     248     890     223
     779       1     228     248     890     223     227     795     251     796
     780       1     227     795     251     796     226     289     295     259
     781       1     225     745     721     222     224     892     450     899
     782       1     224     892     450     899     433     891     449     221
     783       1     433     891     449     221     223     890     448     898
     784       1     223     890     448     898     796     251     447     220
     785       1     796     251     447     220     259     295     301     265
     786       1     222     721     232     219     899     450     445     896
     787       1     899     450     445     896     221     449     726     218
     788       1     221     449     726     218     898     448     236     436
     789       1     898     448     236     436     220     447     720     895
     790       1     220     447     720     895     265     301     235     217
     791       1     219     232     583     691     896     445     246     444
     792       1     896     445     246     444     218     726     852     443
     793       1     218     726     852     443     436     236     434     442
     794       1     436     236     434     442     895     720     794     441
     795       1     895     720     794     441     217     235     313     277
     796       1     691     583     535     231     444     246     529     439
     797       1     444     246     529     439     443     852     523     487
     798       1     443     852     523     487     442     434     517     240
     799       1     442     434     517     240     441     794     437     475
     800       1     441     794     437     475     277     313     319     283
     801       1     751     727     233     745     245     456     451     892
     802       1     245     456     451     892     897     455     725     891
     803       1     897     455     725     891     248     454     237     890
     804       1     248     454     237     890     795     453     912     251
     805       1     795     453     912     251     289     325     241     295
     806       1     745     233     761     721     892     451     724     450
     807       1     892     451     724     450     891     725     690     449
     808       1     891     725     690     449     890     237     249     448
     809       1     890     237     249     448     251     912     793     447
     810       1     251     912     793     447     295     241     337     301
     811       1     721     761     769     232     450     724     880     445
     812       1     450     724     880     445     449     690     879     726
     813       1     449     690     879     726     448     249     878     236
     814       1     448     249     878     236     447     793     252     720
     815       1     447     793     252     720     301     337     343     235
     816       1     232     769     763     583     445     880     462     246
     817       1     445     880     462     246     726     879     461     852
     818       1     726     879     461     852     236     878     460     434
     819       1     236     878     460     434     720     252     459     794
     820       1     720     252     459     794     235     343     349     313
     821       1     583     763     234     535     246     462     457     529
     822       1     246     462     457     529     852     461     559     523
     823       1     852     461     559     523     434     460     238     517
     824       1     434     460     238     517     794     459     547     437
     825       1     794     459     547     437     313     349     242     319
     826       1     727     760     817     233     456     230     874     451
     827       1     456     230     874     451     455     655     873     725
     828       1     455     655     873     725     454     435     872     237
     829       1     454     435     872     237     453     657     438     912
     830       1     453     657     438     912     325     361     367     241
     831       1     233     817     811     761     451     874     654     724
     832       1     451     874     654     724     725     873     468     690
     833       1     725     873     468     690     237     872     653     249
     834       1     237     872     653     249     912     438     467     793
     835       1     912     438     467     793     241     367     373     337
     836       1     761     811     466     769     724     654     651     880
     837       1     724     654     651     880     690     468     465     879
     838       1     690     468     465     879     249     653     650     878
     839       1     249     653     650     878     793     467     464     252
     840       1     793     467     464     252     337     373     379     343
     841       1     769     466     649     763     880     651     463     462
     842       1     880     651     463     462     879     465     723     461
     843       1     879     465     723     461     878     650     660     460
     844       1     878     650     660     460     252     464     659     459
     845       1     252     464     659     459     343     379     385     349
     846       1     763     649     607     234     462     463     601     457
     847       1     462     463     601     457     461     723     239     559
     848       1     461     723     239     559     460     660     589     238
     849       1     460     660     589     238     459     659     577     547
     850       1     459     659     577     547     349     385     391     242
     851       1     760     665     759     817     230     664     672     874
     852       1     230     664     672     874     655     663     671     873
     853       1     655     663     671     873     435     662     670     872
     854       1     435     662     670     872     657     243     669     438
     855       1     657     243     669     438     361     397     403     367
     856       1     817     759     247     811     874     672     667     654
     857       1     874     672     667     654     873     671     648     468
     858       1     873     671     648     468     872     670     678     653
     859       1     872     670     678     653     438     669     677     467
     860       1     438     669     677     467     367     403     409     373
     861       1     811     247     675     466     654     667     674     651
     862       1     654     667     674     651     468     648     250     465
     863       1     468     648     250     465     653     678     673     650
     864       1     653     678     673     650     467     677     762     464
     865       1     467     677     762     464     373     409     415     379
     866       1     466     675     684     649     651     674     869     463
     867       1     651     674     869     463     465     250     683     723
     868       1     465     250     683     723     650     673     868     660
     869       1     650     673     868     660     464     762     682     659
     870       1     464     762     682     659     379     415     421     385
     871       1     649     684     643     607     463     869     637     601
     872       1     463     869     637     601     723     683     631     239
     873       1     723     683     631     239     660     868     625     589
     874       1     660     868     625     589     659     682     619     577
     875       1     659     682     619     577     385     421     427     391
*NODE
       1       -5.857864       -5.857864       -5.857864       0       0
       2       -5.857864       -5.857864       -3.514719       0       0
       3       -5.857864       -5.857864       -1.171573       0       0
       4       -5.857864       -5.857864        1.171573       0       0
       5       -5.857864       -5.857864        3.514719       0       0
       6       -5.857864       -5.857864        5.857864       0       0
       7       -5.857864       -3.514719       -5.857864       0       0
       8       -5.857864       -3.514719       -3.514719       0       0
       9       -5.857864       -3.514719       -1.171573       0       0
      10       -5.857864       -3.514719        1.171573       0       0
      11       -5.857864       -3.514719        3.514719       0       0
      12       -5.857864       -3.514719        5.857864       0       0
      13       -5.857864       -1.171573       -5.857864       0       0
      14       -5.857864       -1.171573       -3.514719       0       0
      15       -5.857864       -1.171573       -1.171573       0       0
      16       -5.857864       -1.171573        1.171573       0       0
      17       -5.857864       -1.171573        3.514719       0       0
      18       -5.857864       -1.171573        5.857864       0       0
      19       -5.857864        1.171573       -5.857864       0       0
      20       -5.857864        1.171573       -3.514719       0       0
      21       -5.857864        1.171573       -1.171573       0       0
      22       -5.857864        1.171573        1.171573       0       0
      23       -5.857864        1.171573        3.514719       0       0
      24       -5.857864        1.171573        5.857864       0       0
      25       -5.857864        3.514719       -5.857864       0       0
      26       -5.857864        3.514719       -3.514719       0       0
      27       -5.857864        3.514719       -1.171573       0       0
      28       -5.857864        3.514719        1.171573       0       0
      29       -5.857864        3.514719        3.514719       0       0
      30       -5.857864        3.514719        5.857864       0       0
      31       -5.857864        5.857864       -5.857864       0       0
      32       -5.857864        5.857864       -3.514719       0       0
      33       -5.857864        5.857864       -1.171573       0       0
      34       -5.857864        5.857864        1.171573       0       0
      35       -5.857864        5.857864        3.514719       0       0
      36       -5.857864        5.857864        5.857864       0       0
      37       -3.514719       -5.857864       -5.857864       0       0
      38       -3.514719       -5.857864       -3.514719       0       0
      39       -3.514719       -5.857864       -1.171573       0       0
      40       -3.514719       -5.857864        1.171573       0       0
      41       -3.514719       -5.857864        3.514719       0       0
      42       -3.514719       -5.857864        5.857864       0       0
      43       -3.514719       -3.514719       -5.857864       0       0
      44       -3.514719       -3.514719       -3.514719       0       0
      45       -3.514719       -3.514719       -1.171573       0       0
      46       -3.514719       -3.514719        1.171573       0       0
      47       -3.514719       -3.514719        3.514719       0       0
      48       -3.514719       -3.514719        5.857864       0       0
      49       -3.514719       -1.171573       -5.857864       0       0
      50       -3.514719       -1.171573       -3.514719       0       0
      51       -3.514719       -1.171573       -1.171573       0       0
      52       -3.514719       -1.171573        1.171573       0       0
      53       -3.514719       -1.171573        3.514719       0       0
      54       -3.514719       -1.171573        5.857864       0       0
      55       -3.514719        1.171573       -5.857864       0       0
      56       -3.514719        1.171573       -3.514719       0       0
      57       -3.514719        1.171573       -1.171573       0       0
      58       -3.514719        1.171573        1.171573       0       0
      59       -3.514719        1.171573        3.514719       0       0
      60       -3.514719        1.171573        5.857864       0       0
      61       -3.514719        3.514719       -5.857864       0       0
      62       -3.514719        3.514719       -3.514719       0       0
      63       -3.514719        3.514719       -1.171573       0       0
      64       -3.514719        3.514719        1.171573       0       0
      65       -3.514719        3.514719        3.514719       0       0
      66       -3.514719        3.514719        5.857864       0       0
      67       -3.514719        5.857864       -5.857864       0       0
      68       -3.514719        5.857864       -3.514719       0       0
      69       -3.514719        5.857864       -1.171573       0       0
      70       -3.514719        5.857864        1.171573       0       0
      71       -3.514719        5.857864        3.514719       0       0
      72       -3.514719        5.857864        5.857864       0       0
      73       -1.171573       -5.857864       -5.857864       0       0
      74       -1.171573       -5.857864       -3.514719       0       0
      75       -1.171573       -5.857864       -1.171573       0       0
      76       -1.171573       -5.857864        1.171573       0       0
      77       -1.171573       -5.857864        3.514719       0       0
      78       -1.171573       -5.857864        5.857864       0       0
      79       -1.171573       -3.514719       -5.857864       0       0
      80       -1.171573       -3.514719       -3.514719       0       0
      81       -1.171573       -3.514719       -1.171573       0       0
      82       -1.171573       -3.514719        1.171573       0       0
      83       -1.171573       -3.514719        3.514719       0       0
      84       -1.171573       -3.514719        5.857864       0       0
      85       -1.171573       -1.171573       -5.857864       0       0
      86       -1.171573       -1.171573       -3.514719       0       0
      87       -1.171573       -1.171573       -1.171573       0       0
      88       -1.171573       -1.171573        1.171573       0       0
      89       -1.171573       -1.171573        3.514719       0       0
      90       -1.171573       -1.171573        5.857864       0       0
      91       -1.171573        1.171573       -5.857864       0       0
      92       -1.171573        1.171573       -3.514719       0       0
      93       -1.171573        1.171573       -1.171573       0       0
      94       -1.171573        1.171573        1.171573       0       0
      95       -1.171573        1.171573        3.514719       0       0
      96       -1.171573        1.171573        5.857864       0       0
      97       -1.171573        3.514719       -5.857864       0       0
      98       -1.171573        3.514719       -3.514719       0       0
      99       -1.171573        3.514719       -1.171573       0       0
     100       -1.171573        3.514719        1.171573       0       0
     101       -1.171573        3.514719        3.514719       0       0
     102       -1.171573        3.514719        5.857864       0       0
     103       -1.171573        5.857864       -5.857864       0       0
     104       -1.171573        5.857864       -3.514719       0       0
     105       -1.171573        5.857864       -1.171573       0       0
     106       -1.171573        5.857864        1.171573       0       0
     107       -1.171573        5.857864        3.514719       0       0
     108       -1.171573        5.857864        5.857864       0       0
     109        1.171573       -5.857864       -5.857864       0       0
     110        1.171573       -5.857864       -3.514719       0       0
     111        1.171573       -5.857864       -1.171573       0       0
     112        1.171573       -5.857864        1.171573       0       0
[...]
     709        9.149914       -15.24986       -9.149914       0       0
     710       -7.736263       -4.641758       -4.641757       0       0
     711       -8.066909       -4.840146       -1.613382       0       0
     712       -8.066908       -4.840146        1.613382       0       0
     713       -7.736263       -4.641758        4.641758       0       0
     714        -7.29007       -4.374042         7.29007       0       0
     715       -13.01889       -7.811334        13.01889       0       0
     716        -7.29007        -7.29007       -4.374042       0       0
     717       -7.486852       -7.486852        -1.49737       0       0
     718       -7.486852       -7.486852        1.497371       0       0
     719        -7.29007        -7.29007        4.374042       0       0
     720        6.165572        2.055191       -10.27595       0       0
     721       -9.115839       -1.823167       -9.115839       0       0
     722        10.14185       -16.90309       -3.380617       0       0
     723       -2.938808        8.816426       -14.69404       0       0
     724       -7.490998       -2.496999         -12.485       0       0
     725       -2.496999       -7.490998         -12.485       0       0
     726       -2.242544        2.242545       -11.21272       0       0
     727       -9.271349       -9.271349       -9.271349       0       0
     728       -9.614661        5.768796       -5.768796       0       0
     729       -10.27595        6.165572        -2.05519       0       0
     730       -10.27595        6.165571        2.055191       0       0
     731       -9.614661        5.768796        5.768797       0       0
     732        -14.0028        -14.0028        2.800561       0       0
     733        -14.0028        2.800561         14.0028       0       0
     734       -10.27595         2.05519       -6.165572       0       0
     735       -11.21272        2.242544       -2.242544       0       0
     736       -11.21272        2.242544        2.242545       0       0
     737       -10.27595         2.05519        6.165573       0       0
     738       -9.115839        1.823167        9.115839       0       0
     739        2.938809       -14.69404        8.816425       0       0
     740       -10.27595       -2.055191       -6.165572       0       0
     741       -11.21272       -2.242545       -2.242544       0       0
     742       -11.21272       -2.242545        2.242545       0       0
     743       -10.27595       -2.055191        6.165572       0       0
     744       -9.115839       -1.823168        9.115839       0       0
     745       -8.722275       -5.233366       -8.722275       0       0
     746       -9.614661       -5.768797       -5.768796       0       0
     747       -10.27595       -6.165573        -2.05519       0       0
     748       -10.27595       -6.165572        2.055191       0       0
     749       -9.614661       -5.768797        5.768797       0       0
     750       -2.148966       -10.74483        10.74483       0       0
     751        -8.13352        -8.13352        -8.13352       0       0
     752       -8.722275       -8.722275       -5.233365       0       0
     753       -9.115839       -9.115839       -1.823167       0       0
     754       -9.115839       -9.115839        1.823168       0       0
     755       -8.722275       -8.722275        5.233366       0       0
     756       -13.01889       -13.01889       -7.811334       0       0
     757        3.849001        3.849003        19.24501       0       0
     758        8.022875        8.022875        13.37146       0       0
     759       -13.01889       -7.811334       -13.01889       0       0
     760       -10.40918       -10.40918       -10.40918       0       0
     761       -10.74483       -2.148965       -10.74483       0       0
     762        10.14185        3.380618       -16.90308       0       0
     763       -10.15448        6.092688       -10.15448       0       0
     764       -11.49306        6.895835       -6.895835       0       0
     765         -12.485        7.490998       -2.496999       0       0
     766         -12.485        7.490997           2.497       0       0
     767       -11.49306        6.895835        6.895836       0       0
     768       -10.15448        6.092688        10.15448       0       0
     769       -10.74483        2.148965       -10.74483       0       0
     770         -12.485        2.496999       -7.490998       0       0
     771       -13.89015         2.77803        -2.77803       0       0
     772       -13.89015         2.77803        2.778031       0       0
     773         -12.485        2.496999        7.490999       0       0
     774       -10.74483        2.148965        10.74483       0       0
     775       -12.37381       -12.37381        2.474763       0       0
     776         -12.485          -2.497       -7.490998       0       0
     777       -13.89015       -2.778031        -2.77803       0       0
     778       -13.89015       -2.778031        2.778031       0       0
     779         -12.485          -2.497        7.490998       0       0
     780       -3.380617       -16.90309       -10.14185       0       0
     781       -10.14185        3.380618        16.90308       0       0
     782       -11.49306       -6.895836       -6.895835       0       0
     783         -12.485       -7.490999       -2.496999       0       0
     784         -12.485       -7.490998           2.497       0       0
     785       -11.49306       -6.895836        6.895836       0       0
     786       -10.15448       -6.092689        10.15448       0       0
     787        3.313517       -16.56758        3.313517       0       0
     788       -10.15448       -10.15448       -6.092688       0       0
     789       -10.74483       -10.74483       -2.148965       0       0
     790       -10.74483       -10.74483        2.148966       0       0
     791       -10.15448       -10.15448        6.092689       0       0
     792       -9.271349       -9.271349        9.271349       0       0
     793        7.490999       -2.496999         -12.485       0       0
     794        5.768797        5.768797       -9.614661       0       0
     795        5.233366       -8.722275       -8.722275       0       0
     796        4.641758       -4.641757       -7.736263       0       0
     797       -6.165573        -2.05519        10.27595       0       0
     798       -2.938808       -14.69404        8.816426       0       0
     799       -3.849001       -19.24501       -3.849001       0       0
     800       -13.37146        8.022875       -8.022875       0       0
     801       -14.69404        8.816425       -2.938808       0       0
     802       -14.69404        8.816423        2.938809       0       0
     803       -13.37146        8.022875        8.022875       0       0
     804       -1.497371       -7.486852        7.486852       0       0
     805        4.641757        4.641758        7.736263       0       0
     806       -14.69404        2.938808       -8.816425       0       0
     807       -16.56758        3.313515       -3.313515       0       0
     808       -16.56758        3.313515        3.313517       0       0
     809       -14.69404        2.938808        8.816426       0       0
     810        2.496999       -7.490998          12.485       0       0
     811       -12.37381       -2.474763       -12.37381       0       0
     812       -14.69404       -2.938809       -8.816425       0       0
     813       -16.56758       -3.313517       -3.313515       0       0
     814       -16.56758       -3.313517        3.313517       0       0
     815       -14.69404       -2.938809        8.816425       0       0
     816       -12.37381       -2.474763        12.37381       0       0
     817       -11.58669       -6.952012       -11.58669       0       0
     818       -13.37146       -8.022875       -8.022875       0       0
     819       -14.69404       -8.816426       -2.938808       0       0
     820       -14.69404       -8.816425        2.938809       0       0
     821       -13.37146       -8.022875        8.022875       0       0
     822        9.149914       -15.24986        9.149914       0       0
     823       -10.40918       -10.40918        10.40918       0       0
     824       -11.58669       -11.58669       -6.952011       0       0
     825       -12.37381       -12.37381       -2.474762       0       0
     826        2.496999        7.490999          12.485       0       0
     827       -11.58669       -11.58669        6.952012       0       0
     828        2.778031       -13.89015        2.778031       0       0
     829        3.380618       -16.90309       -10.14185       0       0
     830       -10.14185       -16.90309       -3.380617       0       0
     831        -2.80056        -14.0028         14.0028       0       0
     832       -3.380617       -16.90309        10.14185       0       0
     833       -3.849001       -19.24501        3.849003       0       0
     834       -4.641758       -4.641757        7.736263       0       0
     835        6.895836       -11.49306        6.895836       0       0
     836       -15.24986        9.149914       -9.149914       0       0
     837       -16.90309        10.14185       -3.380617       0       0
     838       -16.90308        10.14185        3.380618       0       0
     839       -15.24986        9.149914        9.149914       0       0
     840       -13.01889        7.811334        13.01889       0       0
     841        -14.0028        -14.0028        -2.80056       0       0
     842       -16.90309        3.380617       -10.14185       0       0
     843       -19.24501        3.849001       -3.849001       0       0
     844       -19.24501        3.849001        3.849003       0       0
     845       -16.90309        3.380617        10.14185       0       0
     846       -1.613382       -4.840145        8.066908       0       0
     847        3.380617       -10.14185        16.90309       0       0
     848       -16.90309       -3.380618       -10.14185       0       0
     849       -19.24501       -3.849003       -3.849001       0       0
     850       -19.24501       -3.849003        3.849003       0       0
     851       -16.90308       -3.380618        10.14185       0       0
     852        -2.05519        6.165573       -10.27595       0       0
     853        3.380617        10.14185        16.90309       0       0
     854       -15.24986       -9.149914       -9.149914       0       0
     855       -16.90309       -10.14185       -3.380617       0       0
     856       -16.90308       -10.14185        3.380618       0       0
     857       -15.24986       -9.149914        9.149914       0       0
     858        8.816425       -14.69404        2.938809       0       0
     859         -11.547         -11.547          11.547       0       0
     860       -8.022875       -13.37146       -8.022875       0       0
     861        -2.77803       -13.89015        -2.77803       0       0
     862        2.938809       -14.69404       -8.816425       0       0
     863       -13.01889       -13.01889        7.811335       0       0
     864       -2.496999         -12.485       -7.490998       0       0
     865        10.14185       -16.90308        3.380618       0       0
     866        3.380618       -16.90308        10.14185       0       0
     867         2.05519       -6.165572        10.27595       0       0
     868        3.380618        10.14185       -16.90308       0       0
     869       -9.149914        9.149914       -15.24986       0       0
     870       -5.768797       -5.768796        9.614661       0       0
     871        2.148965       -10.74483        10.74483       0       0
     872        2.938809       -8.816423       -14.69404       0       0
     873       -2.938808       -8.816425       -14.69404       0       0
     874       -8.022875       -8.022875       -13.37146       0       0
     875           2.497         -12.485        7.490998       0       0
     876       -6.895836       -6.895835        11.49306       0       0
     877         2.77803        2.778031        13.89015       0       0
     878        2.778031        2.778031       -13.89015       0       0
     879        -2.77803        2.778031       -13.89015       0       0
     880       -7.490998           2.497         -12.485       0       0
     881       -3.313515       -16.56758       -3.313515       0       0
     882       -7.490998           2.497          12.485       0       0
     883        2.474762       -12.37381        12.37381       0       0
     884         1.49737       -7.486852        7.486852       0       0
     885       -2.242545       -2.242544        11.21272       0       0
     886        6.895835       -6.895835        11.49306       0       0
     887        6.895835        6.895836        11.49306       0       0
     888        2.778031       -13.89015        -2.77803       0       0
     889       -8.022875       -8.022875        13.37146       0       0
     890        2.055191       -6.165571       -10.27595       0       0
     891        -2.05519       -6.165572       -10.27595       0       0
     892       -5.768796       -5.768796       -9.614661       0       0
     893       -3.313515       -16.56758        3.313517       0       0
     894        8.816425        2.938809        14.69404       0       0
     895        4.840146        1.613382       -8.066908       0       0
     896       -4.840145        1.613382       -8.066909       0       0
     897       -1.823167       -9.115839       -9.115839       0       0
     898        1.707059       -1.707058       -8.535294       0       0
     899       -4.840145       -1.613382       -8.066909       0       0
     900        6.092688       -10.15448        10.15448       0       0
     901       -9.149914       -9.149914        15.24986       0       0
     902        8.816426       -14.69404       -2.938808       0       0
     903        8.022875       -13.37146       -8.022875       0       0
     904       -9.149914       -15.24986        9.149914       0       0
     905       -7.490997         -12.485           2.497       0       0
     906       -4.840146        1.613382        8.066908       0       0
     907       -3.380618        10.14185        16.90308       0       0
     908       -4.641757       -7.736263       -4.641757       0       0
     909       -4.840145       -8.066909       -1.613382       0       0
     910       -4.840145       -8.066908        1.613382       0       0
     911       -4.641757       -7.736263        4.641758       0       0
     912        6.895836       -6.895835       -11.49306       0       0
     913       -7.811334       -13.01889        13.01889       0       0
     914       -1.613382       -8.066909       -4.840145       0       0
     915       -1.707058       -8.535294       -1.707058       0       0
     916       -1.707058       -8.535294        1.707059       0       0
     917       -1.613382       -8.066909        4.840146       0       0
     918        6.895836       -11.49306       -6.895835       0       0
     919       -9.149914        9.149914        15.24986       0       0
     920        1.613382       -8.066909       -4.840145       0       0
     921        1.707059       -8.535294       -1.707058       0       0
     922        1.707059       -8.535294        1.707059       0       0
     923        1.613382       -8.066908        4.840146       0       0
     924       -7.490998         -12.485       -2.496999       0       0
     925        -2.77803       -13.89015        2.778031       0       0
     926        4.641758       -7.736263       -4.641757       0       0
     927        4.840146       -8.066909       -1.613382       0       0
     928        4.840146       -8.066908        1.613382       0       0
     929        4.641758       -7.736263        4.641758       0       0
     930       -10.14185       -16.90308        3.380618       0       0
     931        8.022875       -13.37146        8.022875       0       0
     932       -4.641758        4.641758        7.736263       0       0
     933        7.490998         -12.485           2.497       0       0
     934       -2.496999         -12.485        7.490999       0       0
     935          -2.497       -7.490997          12.485       0       0
     936        7.811334       -13.01889        13.01889       0       0
     937       -2.938808       -14.69404       -8.816425       0       0
     938       -9.149914       -15.24986       -9.149914       0       0
     939       -8.022875       -13.37146        8.022875       0       0
     940       -8.816423       -14.69404        2.938809       0       0
     941       -8.816425       -14.69404       -2.938808       0       0
     942        1.613382       -4.840145        8.066909       0       0
     943       -3.380618       -10.14185        16.90308       0       0
     944       -5.768796       -9.614661       -5.768796       0       0
     945       -6.165572       -10.27595        -2.05519       0       0
     946       -6.165571       -10.27595        2.055191       0       0
     947       -5.768796       -9.614661        5.768797       0       0
     948        6.165572        2.055191        10.27595       0       0
     949       -6.895835       -11.49306       -6.895835       0       0
     950        -2.05519       -10.27595       -6.165572       0       0
     951       -2.242544       -11.21272       -2.242544       0       0
     952       -2.242544       -11.21272        2.242545       0       0
     953        -2.05519       -10.27595        6.165573       0       0
     954        2.242544        2.242545        11.21272       0       0
     955        9.149914       -9.149914        15.24986       0       0
     956        2.055191       -10.27595       -6.165572       0       0
     957        2.242545       -11.21272       -2.242544       0       0
     958        2.242545       -11.21272        2.242545       0       0
     959        2.055191       -10.27595        6.165572       0       0
     960       -2.242545        2.242545        11.21272       0       0
     961        7.490999         -12.485       -2.496999       0       0
     962        5.768797       -9.614661       -5.768796       0       0
     963        6.165573       -10.27595        -2.05519       0       0
     964        6.165572       -10.27595        2.055191       0       0
     965        5.768797       -9.614661        5.768797       0       0
     966       -1.613382        4.840146        8.066908       0       0
     967       -6.895835       -11.49306        6.895836       0       0
     968       -8.816426       -2.938808        14.69404       0       0
     969       -3.313517       -3.313515        16.56758       0       0
     970        3.313515       -3.313515        16.56758       0       0
     971        8.816425       -2.938808        14.69404       0       0
     972        4.840145        1.613382        8.066909       0       0
     973        3.313517       -16.56758       -3.313515       0       0
     974       -6.895836        6.895836        11.49306       0       0
     975           2.497         -12.485       -7.490998       0       0
     976          -2.497        7.490998          12.485       0       0
*RIGIDWALL_PLANAR_ID
         1                                                                      
         0         0         0       0.0       0.01.00000E20       1.0
       0.0     -22.0       0.0       0.0     -21.0       0.0       0.0       0.0
*SET_PART_LIST
         1       0.0       0.0       0.0       0.0MECH
         1         0         0         0         0         0         0         0
*END
