$# LS-DYNA Keyword file created by LS-PrePost(R) V4.10.5-23Jun2023
$# Created on Jul-17-2024 (14:14:06)
*KEYWORD
*TITLE
$#                                                                         title
LS-DYNA keyword deck by LS-PrePost
*CONTROL_TERMINATION
      40.0         0       0.0       0.01.000000E8         0
*DATABASE_ABSTAT
       0.5         0         0         1
*DATABASE_BINARY_D3PLOT
       0.5         0         0         0         0
*MAT_FABRIC_TITLE
Airbag
         17.86000E-7       0.3       0.2                 0.2       0.2          
      0.04                           1.0      0.06      0.35       0.1       0.2
       0.0       0.0       0.0       0.0       0.0         0         2       0.0
                 0.0         0       0.0       0.0       0.0       0.0       0.0
       0.0       0.0       0.0                                     0.0         0
*MAT_RIGID_TITLE
Gas Nozzle
         27.80000E-6     200.0       0.3       0.0       0.0       0.0          
       1.0         7         7
       0.0       0.0       0.0       0.0       0.0       0.0
*MAT_NULL
         3       0.0       0.0       0.0       0.0       0.0       0.0       0.0
*PART
airbag
         1         1         1         0         0         0         0         0
*SECTION_SHELL_TITLE
Shell
         1         5       1.0         4       1.0         0         0         1
       0.4       0.4       0.4       0.4       0.0       0.0       0.0         0
*PART
null
         2         1         3         0         0         0         0         0
*PART
gas nozzle
         3         1         2         0         0         0         0         0
*DEFINE_CURVE_TITLE
Mass Flow Rate
         1         0       1.0       1.0       0.0       0.0         0         0
                 0.0                 0.0
                30.0                0.01
                40.0                 0.0
*AIRBAG_SIMPLE_AIRBAG_MODEL
         1         1         0       1.0       1.0       0.0       0.0       0.0
   196.168     274.6     800.0         1       0.7       0.01.01300E-41.22500E-9
         0       0.0       0.0       0.0       0.0       0.0
*ELEMENT_SHELL
       1       1       1      13      14      14       0       0       0       0
       2       1       1      14      15       2       0       0       0       0
       3       1       2      15      16       3       0       0       0       0
       4       1       3      16      17       4       0       0       0       0
       5       1       4      17      18       5       0       0       0       0
       6       1       5      18      19       6       0       0       0       0
       7       1       6      19      20       7       0       0       0       0
       8       1       7      20      21       8       0       0       0       0
       9       1       8      21      22       9       0       0       0       0
      10       1       9      22      23      23       0       0       0       0
      11       1      10      28      29      29       0       0       0       0
      12       1      10      29      30      11       0       0       0       0
      13       1      11      30      31      12       0       0       0       0
      14       1      12      31      32      13       0       0       0       0
      15       1      13      32      33      14       0       0       0       0
      16       1      14      33      34      15       0       0       0       0
      17       1      15      34      35      16       0       0       0       0
      18       1      16      35      36      17       0       0       0       0
      19       1      17      36      37      18       0       0       0       0
      20       1      18      37      38      19       0       0       0       0
$ ... 4126 like lines cut
*NODE
       1       -29.61819       -4.743619             0.5       0       0
       2       -29.78266       -3.577157             0.5       0       0
       3       -29.90211       -2.393841             0.5       0       0
       4       -29.97487       -1.199472             0.5       0       0
       5           -30.0   -1.029075e-13             0.5       0       0
       6       -29.97487        1.199474             0.5       0       0
       7       -29.90211        2.393843             0.5       0       0
       8       -29.78266        3.577159             0.5       0       0
       9       -29.61819        4.743619             0.5       0       0
      10       -28.45422       -9.487651             0.5       0       0
      11       -28.79558       -8.398766             0.5       0       0
      12       -29.10203        -7.27084             0.5       0       0
      13         -29.369       -6.108542             0.5       0       0
      14       -28.86786       -4.956059             0.0       0       0
      15           -28.8            -3.6             0.0       0       0
      16           -28.8            -2.4             0.0       0       0
      17           -28.8       -1.199999             0.0       0       0
      18           -28.8             0.0             0.0       0       0
      19           -28.8        1.200001             0.0       0       0
      20           -28.8        2.400002             0.0       0       0
$ ... 4080 like lines cut
*RIGIDWALL_PLANAR_ID
         1floor
         0         0         0       0.0       0.01.00000E20       1.0
       0.0       0.0     -40.0       0.0       0.0     350.0       0.0       0.0
*SET_PART_LIST_TITLE
Airbag
         1       0.0       0.0       0.0       0.0MECH
         2         0         0         0         0         0         0         0
*END
