$# LS-DYNA Keyword file created by LS-PrePost(R) V4.10.5-23Jun2023
$# Created on Jul-18-2024 (14:20:22)
*KEYWORD
*TITLE
$#                                                                         title
LS-DYNA keyword deck by LS-PrePost
*CONTROL_TERMINATION
$#  endtim    endcyc     dtmin    endeng    endmas     nosol
      30.0         0       0.0       0.01.000000E8         0
*CONTROL_TIMESTEP
$#  dtinit    tssfac      isdo    tslimt     dt2ms      lctm     erode     ms1st
1.00000E-7       0.0         0       0.0       0.0         0         0         0
*DATABASE_ABSTAT
$#      dt    binary      lcur     ioopt
       0.5         0         0         1
*DATABASE_BINARY_D3PLOT
$#      dt      lcdt      beam     npltc    psetid
       0.5         0         0         0         0
*MAT_ADD_AIRBAG_POROSITY_LEAKAGE
$#     mid    x2/flc    x3/fac       ela     fvopt        x0        x1         -
         1       0.0       1.0       0.0       0.0       0.0       0.0          
*MAT_FABRIC_TITLE
Airbag
$#     mid        ro        ea        eb         -      prba      prab         -
         17.86000E-7       0.3       0.2                 0.2       0.2          
$#     gab         -         -       cse        el       prl    lratio      damp
      0.04                           1.0      0.06      0.35       0.1       0.2
$#    aopt       flc       fac       ela      lnrc      form     fvopt    tsrfac
       0.0       0.0       0.0       0.0       0.0         0         2       0.0
$#  unused    rgbrth     a0ref        a1        a2        a3        x0        x1
                 0.0         0       0.0       0.0       0.0       0.0       0.0
$#      v1        v2        v3         -         -         -      beta    isrefg
       0.0       0.0       0.0                                     0.0         0
*MAT_RIGID_TITLE
Gas Nozzle
$#     mid        ro         e        pr         n    couple         m     alias
         27.80000E-6     200.0       0.3       0.0       0.0       0.0          
$#     cmo      con1      con2
       1.0         7         7
$#lco or a1        a2        a3        v1        v2        v3
       0.0       0.0       0.0       0.0       0.0       0.0
*PART
$#                                                                         title
fabric
$#     pid     secid       mid     eosid      hgid      grav    adpopt      tmid
         1         1         1         0         0         0         0         0
*SECTION_SHELL_TITLE
Shell
$#   secid    elform      shrf       nip     propt   qr/irid     icomp     setyp
         1         5       1.0         1       1.0         0         0         1
$#      t1        t2        t3        t4      nloc     marea      idof    edgset
       0.4       0.4       0.4       0.4       0.0       0.0       0.0         0
*PART
$#                                                                         title
null
$#     pid     secid       mid     eosid      hgid      grav    adpopt      tmid
         2         1         1         0         0         0         0         0
*PART
$#                                                                         title
gas nozzle
$#     pid     secid       mid     eosid      hgid      grav    adpopt      tmid
         3         1         2         0         0         0         0         0
*PART
$#                                                                         title
boxsolid
$#     pid     secid       mid     eosid      hgid      grav    adpopt      tmid
         4         2         2         0         0         0         0         0
*SECTION_SOLID
$#   secid    elform       aet    unused    unused    unused    cohoff   gaskeit
         2         1         0                                     0.0       0.0
*DEFINE_CURVE_TITLE
Mass Flow Rate
$#    lcid      sidr       sfa       sfo      offa      offo    dattyp     lcint
         1         0       1.0       1.0       0.0       0.0         0         0
$#                a1                  o1
                 0.0                 0.0
                20.0    9.9999997474e-06
                30.0                 0.0
*AIRBAG_SIMPLE_AIRBAG_MODEL
$#     sid    sidtyp      rbid      vsca      psca      vini       mwd      spsf
         1         0         0       1.0       1.0       0.0       0.0       0.0
$#      cv        cp         t      lcid        mu      area        pe        ro
   196.168     274.6     800.0         1       0.7       0.01.01300E-41.22500E-9
$#     lou      text         a         b        mw      gasc
         0       0.0       0.0       0.0       0.0       0.0
*ELEMENT_SOLID
$#   eid     pid      n1      n2      n3      n4      n5      n6      n7      n8
    4449       4    5058    5059    5090    5089    6019    6020    6051    6050
    4450       4    5059    5060    5091    5090    6020    6021    6052    6051
    4451       4    5060    5061    5092    5091    6021    6022    6053    6052
    4452       4    5061    5062    5093    5092    6022    6023    6054    6053
    4453       4    5062    5063    5094    5093    6023    6024    6055    6054
    4454       4    5063    5064    5095    5094    6024    6025    6056    6055
    4455       4    5064    5065    5096    5095    6025    6026    6057    6056
    4456       4    5065    5066    5097    5096    6026    6027    6058    6057
    4457       4    5066    5067    5098    5097    6027    6028    6059    6058
    4458       4    5067    5068    5099    5098    6028    6029    6060    6059
    4459       4    5068    5069    5100    5099    6029    6030    6061    6060
    4460       4    5069    5070    5101    5100    6030    6031    6062    6061
    4461       4    5070    5071    5102    5101    6031    6032    6063    6062
    4462       4    5071    5072    5103    5102    6032    6033    6064    6063
    4463       4    5072    5073    5104    5103    6033    6034    6065    6064
    4464       4    5073    5074    5105    5104    6034    6035    6066    6065
    4465       4    5074    5075    5106    5105    6035    6036    6067    6066
    4466       4    5075    5076    5107    5106    6036    6037    6068    6067
    4467       4    5076    5077    5108    5107    6037    6038    6069    6068
    4468       4    5077    5078    5109    5108    6038    6039    6070    6069
$ ... 3580 like lines cut
*ELEMENT_SHELL
$#   eid     pid      n1      n2      n3      n4      n5      n6      n7      n8
       1       1       1      13      14      14       0       0       0       0
       2       1       1      14      15       2       0       0       0       0
       3       1       2      15      16       3       0       0       0       0
       4       1       3      16      17       4       0       0       0       0
       5       1       4      17      18       5       0       0       0       0
       6       1       5      18      19       6       0       0       0       0
       7       1       6      19      20       7       0       0       0       0
       8       1       7      20      21       8       0       0       0       0
       9       1       8      21      22       9       0       0       0       0
      10       1       9      22      23      23       0       0       0       0
      11       1      10      28      29      29       0       0       0       0
      12       1      10      29      30      11       0       0       0       0
      13       1      11      30      31      12       0       0       0       0
      14       1      12      31      32      13       0       0       0       0
      15       1      13      32      33      14       0       0       0       0
      16       1      14      33      34      15       0       0       0       0
      17       1      15      34      35      16       0       0       0       0
      18       1      16      35      36      17       0       0       0       0
      19       1      17      36      37      18       0       0       0       0
      20       1      18      37      38      19       0       0       0       0
$ ... 4156 like lines cut
*NODE
$#   nid               x               y               z      tc      rc
       1       -29.61819       -4.743619             0.5       0       0
       2       -29.78266       -3.577157             0.5       0       0
       3       -29.90211       -2.393841             0.5       0       0
       4       -29.97487       -1.199472             0.5       0       0
       5           -30.0   -1.029075e-13             0.5       0       0
       6       -29.97487        1.199474             0.5       0       0
       7       -29.90211        2.393843             0.5       0       0
       8       -29.78266        3.577159             0.5       0       0
       9       -29.61819        4.743619             0.5       0       0
      10       -28.45422       -9.487651             0.5       0       0
      11       -28.79558       -8.398766             0.5       0       0
      12       -29.10203        -7.27084             0.5       0       0
      13         -29.369       -6.108542             0.5       0       0
      14       -28.86786       -4.956059             0.0       0       0
      15           -28.8            -3.6             0.0       0       0
      16           -28.8            -2.4             0.0       0       0
      17           -28.8       -1.199999             0.0       0       0
      18           -28.8             0.0             0.0       0       0
      19           -28.8        1.200001             0.0       0       0
      20           -28.8        2.400002             0.0       0       0
$ ... 8831 like lines cut
*SET_SEGMENT
$#     sid       da1       da2       da3       da4    solver       its         -
         1       0.0       0.0       0.0       0.0MECH               0          
$#      n1        n2        n3        n4        a1        a2        a3        a4
      4284      4301      1061      1010       0.0       0.0       0.0       0.0
      3826      3862      3863      3827       0.0       0.0       0.0       0.0
      3549      3595      3596      3550       0.0       0.0       0.0       0.0
      3272      3321      3322      3273       0.0       0.0       0.0       0.0
      2700      2749      2750      2701       0.0       0.0       0.0       0.0
      2415      2459      2460      2416       0.0       0.0       0.0       0.0
      2146      2178      2179      2147       0.0       0.0       0.0       0.0
      1606      1650      1651      1607       0.0       0.0       0.0       0.0
      1333      1382      1383      1334       0.0       0.0       0.0       0.0
       785       836       837       786       0.0       0.0       0.0       0.0
       520       567       568       521       0.0       0.0       0.0       0.0
       255       295       296       256       0.0       0.0       0.0       0.0
      4058       425      4060      4060       0.0       0.0       0.0       0.0
       476       522       523      4114       0.0       0.0       0.0       0.0
       493      2564       540       540       0.0       0.0       0.0       0.0
      3827      3863      3864      3828       0.0       0.0       0.0       0.0
      3550      3596      3597      3551       0.0       0.0       0.0       0.0
      3273      3322      3323      3274       0.0       0.0       0.0       0.0
      2701      2750      2751      2702       0.0       0.0       0.0       0.0
      2416      2460      2461      2417       0.0       0.0       0.0       0.0
$ ... 4000 like lines cut
*END
