$# LS-DYNA Keyword file created by LS-PrePost(R) V4.10.5-23Jun2023
$# Created on Jul-22-2024 (14:51:45)
*KEYWORD
*TITLE
$#                                                                         title
LS-DYNA keyword deck by LS-PrePost
*CONTROL_TERMINATION
$#  endtim    endcyc     dtmin    endeng    endmas     nosol
      40.0         0       0.0       0.01.000000E8         0
*CONTROL_TIMESTEP
$#  dtinit    tssfac      isdo    tslimt     dt2ms      lctm     erode     ms1st
1.00000E-7       0.0         0       0.0       0.0         0         0         0
*DATABASE_ABSTAT
$#      dt    binary      lcur     ioopt
       0.5         0         0         1
*DATABASE_BINARY_D3PLOT
$#      dt      lcdt      beam     npltc    psetid
       0.5         0         0         0         0
*CONTACT_AUTOMATIC_ONE_WAY_SURFACE_TO_SURFACE_ID
$#     cid                                                                 title
         1bag (slave) on floor (master) contact
$#   surfa     surfb  surfatyp  surfbtyp   saboxid   sbboxid      sapr      sbpr
         1         2         0         0         0         0         1         1
$#      fs        fd        dc        vc       vdc    penchk        bt        dt
       0.0       0.0       0.0       0.0       0.0         0       0.01.00000E20
$#    sfsa      sfsb      sast      sbst     sfsat     sfsbt       fsf       vsf
       1.0       1.0       1.0       1.0       1.0       1.0       1.0       1.0
*SET_SEGMENT
$#     sid       da1       da2       da3       da4    solver       its         -
         1       0.0       0.0       0.0       0.0MECH               0          
$#      n1        n2        n3        n4        a1        a2        a3        a4
      4284      4301      1061      1010       0.0       0.0       0.0       0.0
      3826      3862      3863      3827       0.0       0.0       0.0       0.0
      3549      3595      3596      3550       0.0       0.0       0.0       0.0
      3272      3321      3322      3273       0.0       0.0       0.0       0.0
      2700      2749      2750      2701       0.0       0.0       0.0       0.0
      2415      2459      2460      2416       0.0       0.0       0.0       0.0
      2146      2178      2179      2147       0.0       0.0       0.0       0.0
      1606      1650      1651      1607       0.0       0.0       0.0       0.0
      1333      1382      1383      1334       0.0       0.0       0.0       0.0
       785       836       837       786       0.0       0.0       0.0       0.0
       520       567       568       521       0.0       0.0       0.0       0.0
       255       295       296       256       0.0       0.0       0.0       0.0
      4058       425      4060      4060       0.0       0.0       0.0       0.0
       476       522       523      4114       0.0       0.0       0.0       0.0
       493      2564       540       540       0.0       0.0       0.0       0.0
      3827      3863      3864      3828       0.0       0.0       0.0       0.0
      3550      3596      3597      3551       0.0       0.0       0.0       0.0
      3273      3322      3323      3274       0.0       0.0       0.0       0.0
      2701      2750      2751      2702       0.0       0.0       0.0       0.0
      2416      2460      2461      2417       0.0       0.0       0.0       0.0
$ ... 4000 like lines cut
*SET_SEGMENT_TITLE
floor
$#     sid       da1       da2       da3       da4    solver       its         -
         2       0.0       0.0       0.0       0.0MECH               0          
$#      n1        n2        n3        n4        a1        a2        a3        a4
      8631      8662      9623      9592       0.0       0.0       0.0       0.0
      8376      8407      9368      9337       0.0       0.0       0.0       0.0
      8121      8152      9113      9082       0.0       0.0       0.0       0.0
      7866      7897      8858      8827       0.0       0.0       0.0       0.0
      7611      7642      8603      8572       0.0       0.0       0.0       0.0
      7356      7387      8348      8317       0.0       0.0       0.0       0.0
      7101      7132      8093      8062       0.0       0.0       0.0       0.0
      6846      6877      7838      7807       0.0       0.0       0.0       0.0
      6591      6622      7583      7552       0.0       0.0       0.0       0.0
      6336      6367      7328      7297       0.0       0.0       0.0       0.0
      6112      6081      7042      7073       0.0       0.0       0.0       0.0
      5826      5857      6818      6787       0.0       0.0       0.0       0.0
      5571      5602      6563      6532       0.0       0.0       0.0       0.0
      5316      5347      6308      6277       0.0       0.0       0.0       0.0
      5061      5092      6053      6022       0.0       0.0       0.0       0.0
      9713      9712      9681      9682       0.0       0.0       0.0       0.0
      9458      9457      9426      9427       0.0       0.0       0.0       0.0
      9203      9202      9171      9172       0.0       0.0       0.0       0.0
      8948      8947      8916      8917       0.0       0.0       0.0       0.0
      8693      8692      8661      8662       0.0       0.0       0.0       0.0
$ ... 11920 like lines cut
*MAT_ADD_AIRBAG_POROSITY_LEAKAGE
$#     mid    x2/flc    x3/fac       ela     fvopt        x0        x1         -
         3       1.0       1.0       0.0       2.0       0.0       1.0          
*MAT_FABRIC_TITLE
Airbag
$#     mid        ro        ea        eb         -      prba      prab         -
         17.86000E-7       0.3       0.2                 0.2       0.2          
$#     gab         -         -       cse        el       prl    lratio      damp
      0.04                           1.0      0.06      0.35       0.1       0.2
$#    aopt       flc       fac       ela      lnrc      form     fvopt    tsrfac
       0.0       0.0       0.0       0.0       0.0         0         2       0.0
$#  unused    rgbrth     a0ref        a1        a2        a3        x0        x1
                 0.0         1       0.0       0.0       0.0       0.0       0.0
$#      v1        v2        v3         -         -         -      beta    isrefg
       0.0       0.0       0.0                                     0.0         0
*MAT_RIGID_TITLE
Gas Nozzle
$#     mid        ro         e        pr         n    couple         m     alias
         27.80000E-6     200.0       0.3       0.0       0.0       0.0          
$#     cmo      con1      con2
       1.0         7         7
$#lco or a1        a2        a3        v1        v2        v3
       0.0       0.0       0.0       0.0       0.0       0.0
*MAT_NULL_TITLE
null (material)
$#     mid        ro        pc        mu     terod     cerod        ym        pr
         37.86000E-71.00000E-5       0.0       0.0       0.0       0.3       0.2
*MAT_FABRIC_TITLE
Permeable fabric
$#     mid        ro        ea        eb         -      prba      prab         -
         47.86000E-7       0.3       0.2                 0.2       0.2          
$#     gab         -         -       cse        el       prl    lratio      damp
      0.04                           1.0      0.06      0.35       0.1       0.2
$#    aopt       flc       fac       ela      lnrc      form     fvopt    tsrfac
       0.0       0.0       0.0       0.0       0.0         0         2       0.0
$#  unused    rgbrth     a0ref        a1        a2        a3        x0        x1
                 0.0         1       0.0       0.0       0.0       0.0       0.0
$#      v1        v2        v3         -         -         -      beta    isrefg
       0.0       0.0       0.0                                     0.0         0
*MAT_ADD_PERMEABILITY_TITLE
max-permeability
$#     mid      perm     permy     permz     thexp      lckz     pmtyp
         4  100000.0    100000    100000       0.0         0         0
*PART
$#                                                                         title
fabric
$#     pid     secid       mid     eosid      hgid      grav    adpopt      tmid
         1         1         1         0         0         0         0         0
*SECTION_SHELL_TITLE
Shell
$#   secid    elform      shrf       nip     propt   qr/irid     icomp     setyp
         1         5       1.0         1       1.0         0         0         1
$#      t1        t2        t3        t4      nloc     marea      idof    edgset
       0.4       0.4       0.4       0.4       0.0       0.0       0.0         0
*PART
$#                                                                         title
null
$#     pid     secid       mid     eosid      hgid      grav    adpopt      tmid
         2         1         4         0         0         0         0         0
*PART
$#                                                                         title
gas nozzle
$#     pid     secid       mid     eosid      hgid      grav    adpopt      tmid
         3         1         2         0         0         0         0         0
*PART
$#                                                                         title
boxsolid
$#     pid     secid       mid     eosid      hgid      grav    adpopt      tmid
         4         0         0         0         0         0         0         0
*DEFINE_CURVE_TITLE
Mass Flow Rate
$#    lcid      sidr       sfa       sfo      offa      offo    dattyp     lcint
         1         0       1.0       1.0       0.0       0.0         0         0
$#                a1                  o1
                 0.0                 0.0
                20.0    9.9999997474e-06
                30.0                 0.0
*AIRBAG_SIMPLE_AIRBAG_MODEL
$#     sid    sidtyp      rbid      vsca      psca      vini       mwd      spsf
         1         0         0       1.0       1.0       0.0       0.0       0.0
$#      cv        cp         t      lcid        mu      area        pe        ro
   196.168     274.6     800.0         1       0.7       0.01.01300E-41.22500E-9
$#     lou      text         a         b        mw      gasc
         0       0.0       0.0       0.0       0.0       0.0
*ELEMENT_SOLID
$#   eid     pid      n1      n2      n3      n4      n5      n6      n7      n8
    4449       4    9863    9864    9895    9894   10824   10825   10856   10855
    4450       4    9864    9865    9896    9895   10825   10826   10857   10856
    4451       4    9865    9866    9897    9896   10826   10827   10858   10857
    4452       4    9866    9867    9898    9897   10827   10828   10859   10858
    4453       4    9867    9868    9899    9898   10828   10829   10860   10859
    4454       4    9868    9869    9900    9899   10829   10830   10861   10860
    4455       4    9869    9870    9901    9900   10830   10831   10862   10861
    4456       4    9870    9871    9902    9901   10831   10832   10863   10862
    4457       4    9871    9872    9903    9902   10832   10833   10864   10863
    4458       4    9872    9873    9904    9903   10833   10834   10865   10864
    4459       4    9873    9874    9905    9904   10834   10835   10866   10865
    4460       4    9874    9875    9906    9905   10835   10836   10867   10866
    4461       4    9875    9876    9907    9906   10836   10837   10868   10867
    4462       4    9876    9877    9908    9907   10837   10838   10869   10868
    4463       4    9877    9878    9909    9908   10838   10839   10870   10869
    4464       4    9878    9879    9910    9909   10839   10840   10871   10870
    4465       4    9879    9880    9911    9910   10840   10841   10872   10871
    4466       4    9880    9881    9912    9911   10841   10842   10873   10872
    4467       4    9881    9882    9913    9912   10842   10843   10874   10873
    4468       4    9882    9883    9914    9913   10843   10844   10875   10874
$ ... 8980 like lines cut
*ELEMENT_SHELL
$#   eid     pid      n1      n2      n3      n4      n5      n6      n7      n8
       1       1       1      13      14      14       0       0       0       0
       2       1       1      14      15       2       0       0       0       0
       3       1       2      15      16       3       0       0       0       0
       4       1       3      16      17       4       0       0       0       0
       5       1       4      17      18       5       0       0       0       0
       6       1       5      18      19       6       0       0       0       0
       7       1       6      19      20       7       0       0       0       0
       8       1       7      20      21       8       0       0       0       0
       9       1       8      21      22       9       0       0       0       0
      10       1       9      22      23      23       0       0       0       0
      11       1      10      28      29      29       0       0       0       0
      12       1      10      29      30      11       0       0       0       0
      13       1      11      30      31      12       0       0       0       0
      14       1      12      31      32      13       0       0       0       0
      15       1      13      32      33      14       0       0       0       0
      16       1      14      33      34      15       0       0       0       0
      17       1      15      34      35      16       0       0       0       0
      18       1      16      35      36      17       0       0       0       0
      19       1      17      36      37      18       0       0       0       0
      20       1      18      37      38      19       0       0       0       0
$ ... 4156 like lines cut
*NODE
$#   nid               x               y               z      tc      rc
       1       -29.61819       -4.743619             0.5       0       0
       2       -29.78266       -3.577157             0.5       0       0
       3       -29.90211       -2.393841             0.5       0       0
       4       -29.97487       -1.199472             0.5       0       0
       5           -30.0   -1.029075e-13             0.5       0       0
       6       -29.97487        1.199474             0.5       0       0
       7       -29.90211        2.393843             0.5       0       0
       8       -29.78266        3.577159             0.5       0       0
       9       -29.61819        4.743619             0.5       0       0
      10       -28.45422       -9.487651             0.5       0       0
      11       -28.79558       -8.398766             0.5       0       0
      12       -29.10203        -7.27084             0.5       0       0
      13         -29.369       -6.108542             0.5       0       0
      14       -28.86786       -4.956059             0.0       0       0
      15           -28.8            -3.6             0.0       0       0
      16           -28.8            -2.4             0.0       0       0
      17           -28.8       -1.199999             0.0       0       0
      18           -28.8             0.0             0.0       0       0
      19           -28.8        1.200001             0.0       0       0
      20           -28.8        2.400002             0.0       0       0
$ ... 19402 like lines cut
*SECTION_SOLID
$#   secid    elform       aet    unused    unused    unused    cohoff   gaskeit
         2         1         0                                     0.0       0.0
*END
